version 2
run allAtOnce-71-20130122-19:51:37-3549
attr configname allAtOnce
attr datetime 20130122-19:51:37
attr experiment allAtOnce
attr inifile omnetpp.ini
attr iterationvars "$0=256, $1=intuniform(10, 20)"
attr iterationvars2 "$0=256, $1=intuniform(10, 20), $repetition=11"
attr measurement "$0=256, $1=intuniform(10, 20)"
attr network SimphonyDHTNetwork
attr processid 3549
attr repetition 11
attr replication #11
attr resultdir results
attr runnumber 71
attr seedset 71

scalar SimphonyDHTNetwork.members[0] 	#packetsInTheNetwork 	152
statistic SimphonyDHTNetwork.members[0] 	"packets statistics"
field count 197
field mean 76.005076142132
field stddev 43.695782435754
field sum 14973
field sqrsum 1512251
field min 0
field max 151
attr type  int
bin	-INF	0
bin	-39	0
bin	-38	0
bin	-37	0
bin	-36	0
bin	-35	0
bin	-34	0
bin	-33	0
bin	-32	0
bin	-31	0
bin	-30	0
bin	-29	0
bin	-28	0
bin	-27	0
bin	-26	0
bin	-25	0
bin	-24	0
bin	-23	0
bin	-22	0
bin	-21	0
bin	-20	0
bin	-19	0
bin	-18	0
bin	-17	0
bin	-16	0
bin	-15	0
bin	-14	0
bin	-13	0
bin	-12	0
bin	-11	0
bin	-10	0
bin	-9	0
bin	-8	0
bin	-7	0
bin	-6	0
bin	-5	0
bin	-4	0
bin	-3	0
bin	-2	0
bin	-1	0
bin	0	1
bin	1	1
bin	2	2
bin	3	1
bin	4	1
bin	5	2
bin	6	1
bin	7	1
bin	8	1
bin	9	2
bin	10	1
bin	11	1
bin	12	1
bin	13	2
bin	14	1
bin	15	1
bin	16	1
bin	17	2
bin	18	1
bin	19	1
bin	20	1
bin	21	0
bin	22	2
bin	23	2
bin	24	1
bin	25	1
bin	26	1
bin	27	1
bin	28	1
bin	29	1
bin	30	2
bin	31	2
bin	32	1
bin	33	2
bin	34	1
bin	35	1
bin	36	1
bin	37	2
bin	38	1
bin	39	1
bin	40	1
bin	41	2
bin	42	1
bin	43	1
bin	44	1
bin	45	2
bin	46	1
bin	47	1
bin	48	2
bin	49	1
bin	50	2
bin	51	1
bin	52	1
bin	53	1
bin	54	2
bin	55	1
bin	56	1
bin	57	1
bin	58	2
bin	59	1
bin	60	2
bin	61	1
bin	62	2
bin	63	2
bin	64	1
bin	65	2
bin	66	1
bin	67	1
bin	68	1
bin	69	2
bin	70	1
bin	71	1
bin	72	2
bin	73	1
bin	74	0
bin	75	2
bin	76	1
bin	77	2
bin	78	2
bin	79	1
bin	80	1
bin	81	1
bin	82	2
bin	83	1
bin	84	2
bin	85	1
bin	86	1
bin	87	1
bin	88	1
bin	89	1
bin	90	2
bin	91	1
bin	92	2
bin	93	1
bin	94	1
bin	95	1
bin	96	1
bin	97	2
bin	98	1
bin	99	1
bin	100	1
bin	101	2
bin	102	1
bin	103	1
bin	104	2
bin	105	1
bin	106	0
bin	107	2
bin	108	2
bin	109	1
bin	110	2
bin	111	1
bin	112	1
bin	113	1
bin	114	2
bin	115	1
bin	116	47
scalar SimphonyDHTNetwork.members[1] 	#packetsInTheNetwork 	674
statistic SimphonyDHTNetwork.members[1] 	"packets statistics"
field count 857
field mean 335.4049008168
field stddev 194.58524817604
field sum 287442
field sqrsum 128820542
field min 0
field max 673
attr type  int
bin	-INF	0
bin	-39	0
bin	-38	0
bin	-37	0
bin	-36	0
bin	-35	0
bin	-34	0
bin	-33	0
bin	-32	0
bin	-31	0
bin	-30	0
bin	-29	0
bin	-28	0
bin	-27	0
bin	-26	0
bin	-25	0
bin	-24	0
bin	-23	0
bin	-22	0
bin	-21	0
bin	-20	0
bin	-19	0
bin	-18	0
bin	-17	0
bin	-16	0
bin	-15	0
bin	-14	0
bin	-13	0
bin	-12	0
bin	-11	0
bin	-10	0
bin	-9	0
bin	-8	0
bin	-7	0
bin	-6	0
bin	-5	0
bin	-4	0
bin	-3	0
bin	-2	0
bin	-1	0
bin	0	1
bin	1	1
bin	2	2
bin	3	1
bin	4	1
bin	5	2
bin	6	1
bin	7	1
bin	8	1
bin	9	2
bin	10	1
bin	11	1
bin	12	1
bin	13	2
bin	14	1
bin	15	1
bin	16	1
bin	17	2
bin	18	1
bin	19	1
bin	20	2
bin	21	1
bin	22	1
bin	23	1
bin	24	1
bin	25	1
bin	26	1
bin	27	1
bin	28	2
bin	29	1
bin	30	2
bin	31	1
bin	32	1
bin	33	1
bin	34	2
bin	35	1
bin	36	1
bin	37	2
bin	38	1
bin	39	1
bin	40	2
bin	41	1
bin	42	2
bin	43	2
bin	44	1
bin	45	2
bin	46	1
bin	47	1
bin	48	1
bin	49	1
bin	50	2
bin	51	1
bin	52	1
bin	53	1
bin	54	2
bin	55	1
bin	56	1
bin	57	1
bin	58	1
bin	59	1
bin	60	2
bin	61	1
bin	62	1
bin	63	2
bin	64	1
bin	65	1
bin	66	1
bin	67	1
bin	68	2
bin	69	1
bin	70	2
bin	71	1
bin	72	1
bin	73	2
bin	74	1
bin	75	1
bin	76	2
bin	77	1
bin	78	1
bin	79	1
bin	80	2
bin	81	1
bin	82	1
bin	83	1
bin	84	1
bin	85	2
bin	86	1
bin	87	2
bin	88	1
bin	89	2
bin	90	1
bin	91	2
bin	92	1
bin	93	1
bin	94	1
bin	95	2
bin	96	1
bin	97	1
bin	98	2
bin	99	1
bin	100	1
bin	101	1
bin	102	1
bin	103	1
bin	104	1
bin	105	1
bin	106	2
bin	107	1
bin	108	1
bin	109	1
bin	110	1
bin	111	1
bin	112	2
bin	113	1
bin	114	1
bin	115	2
bin	116	709
scalar SimphonyDHTNetwork.members[2] 	#packetsInTheNetwork 	629
statistic SimphonyDHTNetwork.members[2] 	"packets statistics"
field count 806
field mean 313.89205955335
field stddev 182.64743762515
field sum 252997
field sqrsum 106268619
field min 0
field max 628
attr type  int
bin	-INF	0
bin	-38	0
bin	-37	0
bin	-36	0
bin	-35	0
bin	-34	0
bin	-33	0
bin	-32	0
bin	-31	0
bin	-30	0
bin	-29	0
bin	-28	0
bin	-27	0
bin	-26	0
bin	-25	0
bin	-24	0
bin	-23	0
bin	-22	0
bin	-21	0
bin	-20	0
bin	-19	0
bin	-18	0
bin	-17	0
bin	-16	0
bin	-15	0
bin	-14	0
bin	-13	0
bin	-12	0
bin	-11	0
bin	-10	0
bin	-9	0
bin	-8	0
bin	-7	0
bin	-6	0
bin	-5	0
bin	-4	0
bin	-3	0
bin	-2	0
bin	-1	0
bin	0	1
bin	1	1
bin	2	1
bin	3	2
bin	4	1
bin	5	1
bin	6	1
bin	7	1
bin	8	2
bin	9	1
bin	10	1
bin	11	1
bin	12	1
bin	13	2
bin	14	1
bin	15	1
bin	16	2
bin	17	1
bin	18	1
bin	19	1
bin	20	2
bin	21	0
bin	22	2
bin	23	2
bin	24	1
bin	25	2
bin	26	1
bin	27	1
bin	28	2
bin	29	1
bin	30	2
bin	31	1
bin	32	2
bin	33	1
bin	34	1
bin	35	2
bin	36	1
bin	37	1
bin	38	1
bin	39	1
bin	40	2
bin	41	1
bin	42	0
bin	43	2
bin	44	2
bin	45	2
bin	46	1
bin	47	1
bin	48	2
bin	49	1
bin	50	1
bin	51	1
bin	52	1
bin	53	2
bin	54	1
bin	55	1
bin	56	2
bin	57	1
bin	58	1
bin	59	2
bin	60	1
bin	61	1
bin	62	1
bin	63	1
bin	64	2
bin	65	1
bin	66	1
bin	67	2
bin	68	1
bin	69	1
bin	70	2
bin	71	1
bin	72	1
bin	73	1
bin	74	2
bin	75	1
bin	76	2
bin	77	1
bin	78	2
bin	79	1
bin	80	1
bin	81	2
bin	82	1
bin	83	1
bin	84	1
bin	85	2
bin	86	1
bin	87	1
bin	88	1
bin	89	2
bin	90	1
bin	91	2
bin	92	1
bin	93	1
bin	94	1
bin	95	1
bin	96	2
bin	97	1
bin	98	1
bin	99	1
bin	100	2
bin	101	1
bin	102	1
bin	103	2
bin	104	1
bin	105	1
bin	106	2
bin	107	1
bin	108	1
bin	109	1
bin	110	2
bin	111	1
bin	112	1
bin	113	1
bin	114	659
scalar SimphonyDHTNetwork.members[3] 	#packetsInTheNetwork 	746
statistic SimphonyDHTNetwork.members[3] 	"packets statistics"
field count 953
field mean 375.90870933893
field stddev 215.69096283149
field sum 358241
field sqrsum 178955419
field min 0
field max 745
attr type  int
bin	-INF	0
bin	-40	0
bin	-39	0
bin	-38	0
bin	-37	0
bin	-36	0
bin	-35	0
bin	-34	0
bin	-33	0
bin	-32	0
bin	-31	0
bin	-30	0
bin	-29	0
bin	-28	0
bin	-27	0
bin	-26	0
bin	-25	0
bin	-24	0
bin	-23	0
bin	-22	0
bin	-21	0
bin	-20	0
bin	-19	0
bin	-18	0
bin	-17	0
bin	-16	0
bin	-15	0
bin	-14	0
bin	-13	0
bin	-12	0
bin	-11	0
bin	-10	0
bin	-9	0
bin	-8	0
bin	-7	0
bin	-6	0
bin	-5	0
bin	-4	0
bin	-3	0
bin	-2	0
bin	-1	0
bin	0	1
bin	1	1
bin	2	1
bin	3	2
bin	4	1
bin	5	2
bin	6	1
bin	7	1
bin	8	1
bin	9	1
bin	10	2
bin	11	1
bin	12	1
bin	13	2
bin	14	1
bin	15	1
bin	16	1
bin	17	2
bin	18	1
bin	19	1
bin	20	2
bin	21	1
bin	22	1
bin	23	1
bin	24	2
bin	25	1
bin	26	1
bin	27	1
bin	28	1
bin	29	2
bin	30	1
bin	31	1
bin	32	1
bin	33	2
bin	34	1
bin	35	1
bin	36	1
bin	37	1
bin	38	2
bin	39	1
bin	40	1
bin	41	2
bin	42	1
bin	43	1
bin	44	1
bin	45	2
bin	46	1
bin	47	1
bin	48	1
bin	49	2
bin	50	1
bin	51	1
bin	52	2
bin	53	1
bin	54	1
bin	55	2
bin	56	1
bin	57	1
bin	58	1
bin	59	2
bin	60	1
bin	61	1
bin	62	1
bin	63	2
bin	64	1
bin	65	1
bin	66	2
bin	67	1
bin	68	1
bin	69	1
bin	70	2
bin	71	1
bin	72	1
bin	73	1
bin	74	2
bin	75	1
bin	76	1
bin	77	1
bin	78	1
bin	79	2
bin	80	1
bin	81	1
bin	82	1
bin	83	1
bin	84	2
bin	85	1
bin	86	1
bin	87	1
bin	88	1
bin	89	2
bin	90	1
bin	91	2
bin	92	1
bin	93	1
bin	94	1
bin	95	1
bin	96	2
bin	97	1
bin	98	1
bin	99	1
bin	100	2
bin	101	1
bin	102	1
bin	103	1
bin	104	1
bin	105	2
bin	106	1
bin	107	1
bin	108	1
bin	109	2
bin	110	1
bin	111	1
bin	112	1
bin	113	2
bin	114	1
bin	115	1
bin	116	2
bin	117	1
bin	118	1
bin	119	804
scalar SimphonyDHTNetwork.members[4] 	#packetsInTheNetwork 	743
statistic SimphonyDHTNetwork.members[4] 	"packets statistics"
field count 944
field mean 373.08898305085
field stddev 214.8313415896
field sum 352196
field sqrsum 174922260
field min 0
field max 742
attr type  int
bin	-INF	0
bin	-39	0
bin	-38	0
bin	-37	0
bin	-36	0
bin	-35	0
bin	-34	0
bin	-33	0
bin	-32	0
bin	-31	0
bin	-30	0
bin	-29	0
bin	-28	0
bin	-27	0
bin	-26	0
bin	-25	0
bin	-24	0
bin	-23	0
bin	-22	0
bin	-21	0
bin	-20	0
bin	-19	0
bin	-18	0
bin	-17	0
bin	-16	0
bin	-15	0
bin	-14	0
bin	-13	0
bin	-12	0
bin	-11	0
bin	-10	0
bin	-9	0
bin	-8	0
bin	-7	0
bin	-6	0
bin	-5	0
bin	-4	0
bin	-3	0
bin	-2	0
bin	-1	0
bin	0	1
bin	1	2
bin	2	1
bin	3	2
bin	4	1
bin	5	1
bin	6	2
bin	7	1
bin	8	2
bin	9	1
bin	10	1
bin	11	1
bin	12	2
bin	13	1
bin	14	1
bin	15	1
bin	16	2
bin	17	1
bin	18	1
bin	19	1
bin	20	1
bin	21	2
bin	22	1
bin	23	1
bin	24	1
bin	25	2
bin	26	1
bin	27	1
bin	28	1
bin	29	2
bin	30	1
bin	31	1
bin	32	1
bin	33	1
bin	34	1
bin	35	1
bin	36	2
bin	37	1
bin	38	1
bin	39	1
bin	40	2
bin	41	1
bin	42	1
bin	43	1
bin	44	2
bin	45	1
bin	46	2
bin	47	1
bin	48	1
bin	49	2
bin	50	1
bin	51	1
bin	52	1
bin	53	2
bin	54	1
bin	55	1
bin	56	2
bin	57	1
bin	58	1
bin	59	1
bin	60	2
bin	61	1
bin	62	1
bin	63	1
bin	64	2
bin	65	1
bin	66	1
bin	67	1
bin	68	1
bin	69	2
bin	70	1
bin	71	1
bin	72	1
bin	73	1
bin	74	2
bin	75	1
bin	76	1
bin	77	1
bin	78	2
bin	79	1
bin	80	1
bin	81	1
bin	82	2
bin	83	1
bin	84	1
bin	85	1
bin	86	1
bin	87	1
bin	88	2
bin	89	1
bin	90	1
bin	91	1
bin	92	2
bin	93	1
bin	94	1
bin	95	2
bin	96	1
bin	97	1
bin	98	1
bin	99	2
bin	100	1
bin	101	1
bin	102	2
bin	103	1
bin	104	1
bin	105	1
bin	106	1
bin	107	1
bin	108	1
bin	109	2
bin	110	1
bin	111	2
bin	112	1
bin	113	1
bin	114	1
bin	115	1
bin	116	2
bin	117	797
scalar SimphonyDHTNetwork.members[5] 	#packetsInTheNetwork 	781
statistic SimphonyDHTNetwork.members[5] 	"packets statistics"
field count 992
field mean 387.41935483871
field stddev 225.62358379046
field sum 384320
field sqrsum 199340854
field min 0
field max 780
attr type  int
bin	-INF	0
bin	-39	0
bin	-38	0
bin	-37	0
bin	-36	0
bin	-35	0
bin	-34	0
bin	-33	0
bin	-32	0
bin	-31	0
bin	-30	0
bin	-29	0
bin	-28	0
bin	-27	0
bin	-26	0
bin	-25	0
bin	-24	0
bin	-23	0
bin	-22	0
bin	-21	0
bin	-20	0
bin	-19	0
bin	-18	0
bin	-17	0
bin	-16	0
bin	-15	0
bin	-14	0
bin	-13	0
bin	-12	0
bin	-11	0
bin	-10	0
bin	-9	0
bin	-8	0
bin	-7	0
bin	-6	0
bin	-5	0
bin	-4	0
bin	-3	0
bin	-2	0
bin	-1	0
bin	0	1
bin	1	1
bin	2	2
bin	3	1
bin	4	1
bin	5	1
bin	6	2
bin	7	1
bin	8	1
bin	9	1
bin	10	2
bin	11	1
bin	12	2
bin	13	1
bin	14	1
bin	15	1
bin	16	2
bin	17	1
bin	18	1
bin	19	1
bin	20	2
bin	21	1
bin	22	1
bin	23	1
bin	24	1
bin	25	2
bin	26	2
bin	27	1
bin	28	2
bin	29	1
bin	30	1
bin	31	1
bin	32	2
bin	33	1
bin	34	1
bin	35	2
bin	36	1
bin	37	1
bin	38	1
bin	39	2
bin	40	1
bin	41	1
bin	42	2
bin	43	1
bin	44	1
bin	45	1
bin	46	1
bin	47	2
bin	48	1
bin	49	1
bin	50	1
bin	51	2
bin	52	1
bin	53	1
bin	54	1
bin	55	2
bin	56	1
bin	57	1
bin	58	1
bin	59	2
bin	60	1
bin	61	1
bin	62	1
bin	63	2
bin	64	1
bin	65	1
bin	66	1
bin	67	2
bin	68	1
bin	69	2
bin	70	1
bin	71	1
bin	72	1
bin	73	2
bin	74	1
bin	75	1
bin	76	1
bin	77	2
bin	78	1
bin	79	1
bin	80	1
bin	81	2
bin	82	1
bin	83	1
bin	84	1
bin	85	2
bin	86	1
bin	87	1
bin	88	2
bin	89	1
bin	90	2
bin	91	1
bin	92	1
bin	93	1
bin	94	1
bin	95	2
bin	96	1
bin	97	1
bin	98	1
bin	99	2
bin	100	1
bin	101	1
bin	102	1
bin	103	2
bin	104	1
bin	105	1
bin	106	2
bin	107	1
bin	108	1
bin	109	2
bin	110	1
bin	111	0
bin	112	2
bin	113	2
bin	114	1
bin	115	2
bin	116	843
scalar SimphonyDHTNetwork.members[6] 	#packetsInTheNetwork 	239
statistic SimphonyDHTNetwork.members[6] 	"packets statistics"
field count 299
field mean 120.04347826087
field stddev 69.505792206673
field sum 35893
field sqrsum 5748375
field min 0
field max 238
attr type  int
bin	-INF	0
bin	-40	0
bin	-39	0
bin	-38	0
bin	-37	0
bin	-36	0
bin	-35	0
bin	-34	0
bin	-33	0
bin	-32	0
bin	-31	0
bin	-30	0
bin	-29	0
bin	-28	0
bin	-27	0
bin	-26	0
bin	-25	0
bin	-24	0
bin	-23	0
bin	-22	0
bin	-21	0
bin	-20	0
bin	-19	0
bin	-18	0
bin	-17	0
bin	-16	0
bin	-15	0
bin	-14	0
bin	-13	0
bin	-12	0
bin	-11	0
bin	-10	0
bin	-9	0
bin	-8	0
bin	-7	0
bin	-6	0
bin	-5	0
bin	-4	0
bin	-3	0
bin	-2	0
bin	-1	0
bin	0	1
bin	1	2
bin	2	1
bin	3	1
bin	4	1
bin	5	2
bin	6	1
bin	7	1
bin	8	1
bin	9	2
bin	10	1
bin	11	1
bin	12	1
bin	13	2
bin	14	1
bin	15	1
bin	16	1
bin	17	2
bin	18	1
bin	19	1
bin	20	1
bin	21	2
bin	22	1
bin	23	2
bin	24	2
bin	25	1
bin	26	2
bin	27	1
bin	28	1
bin	29	1
bin	30	1
bin	31	1
bin	32	1
bin	33	1
bin	34	1
bin	35	1
bin	36	1
bin	37	2
bin	38	1
bin	39	1
bin	40	1
bin	41	1
bin	42	1
bin	43	1
bin	44	1
bin	45	1
bin	46	1
bin	47	2
bin	48	1
bin	49	1
bin	50	1
bin	51	1
bin	52	2
bin	53	1
bin	54	2
bin	55	1
bin	56	2
bin	57	1
bin	58	2
bin	59	1
bin	60	2
bin	61	2
bin	62	1
bin	63	0
bin	64	2
bin	65	2
bin	66	1
bin	67	1
bin	68	1
bin	69	1
bin	70	1
bin	71	1
bin	72	1
bin	73	1
bin	74	1
bin	75	1
bin	76	1
bin	77	1
bin	78	0
bin	79	2
bin	80	2
bin	81	1
bin	82	1
bin	83	1
bin	84	1
bin	85	1
bin	86	1
bin	87	2
bin	88	1
bin	89	1
bin	90	2
bin	91	1
bin	92	1
bin	93	2
bin	94	1
bin	95	2
bin	96	1
bin	97	1
bin	98	1
bin	99	1
bin	100	2
bin	101	2
bin	102	1
bin	103	1
bin	104	1
bin	105	1
bin	106	1
bin	107	1
bin	108	1
bin	109	1
bin	110	1
bin	111	1
bin	112	1
bin	113	1
bin	114	1
bin	115	1
bin	116	2
bin	117	2
bin	118	1
bin	119	2
bin	120	151
scalar SimphonyDHTNetwork.members[7] 	#packetsInTheNetwork 	551
statistic SimphonyDHTNetwork.members[7] 	"packets statistics"
field count 691
field mean 274.07670043415
field stddev 159.06874338791
field sum 189387
field sqrsum 69365541
field min 0
field max 550
attr type  int
bin	-INF	0
bin	-40	0
bin	-39	0
bin	-38	0
bin	-37	0
bin	-36	0
bin	-35	0
bin	-34	0
bin	-33	0
bin	-32	0
bin	-31	0
bin	-30	0
bin	-29	0
bin	-28	0
bin	-27	0
bin	-26	0
bin	-25	0
bin	-24	0
bin	-23	0
bin	-22	0
bin	-21	0
bin	-20	0
bin	-19	0
bin	-18	0
bin	-17	0
bin	-16	0
bin	-15	0
bin	-14	0
bin	-13	0
bin	-12	0
bin	-11	0
bin	-10	0
bin	-9	0
bin	-8	0
bin	-7	0
bin	-6	0
bin	-5	0
bin	-4	0
bin	-3	0
bin	-2	0
bin	-1	0
bin	0	1
bin	1	1
bin	2	2
bin	3	1
bin	4	1
bin	5	1
bin	6	2
bin	7	1
bin	8	1
bin	9	1
bin	10	1
bin	11	1
bin	12	2
bin	13	1
bin	14	1
bin	15	1
bin	16	2
bin	17	1
bin	18	1
bin	19	1
bin	20	2
bin	21	1
bin	22	1
bin	23	1
bin	24	2
bin	25	1
bin	26	1
bin	27	1
bin	28	2
bin	29	1
bin	30	1
bin	31	1
bin	32	2
bin	33	1
bin	34	1
bin	35	1
bin	36	2
bin	37	1
bin	38	1
bin	39	1
bin	40	2
bin	41	1
bin	42	1
bin	43	1
bin	44	2
bin	45	1
bin	46	0
bin	47	2
bin	48	2
bin	49	1
bin	50	2
bin	51	1
bin	52	1
bin	53	1
bin	54	2
bin	55	1
bin	56	1
bin	57	2
bin	58	1
bin	59	1
bin	60	1
bin	61	2
bin	62	1
bin	63	1
bin	64	2
bin	65	1
bin	66	1
bin	67	2
bin	68	1
bin	69	1
bin	70	2
bin	71	1
bin	72	1
bin	73	1
bin	74	1
bin	75	2
bin	76	1
bin	77	1
bin	78	1
bin	79	2
bin	80	1
bin	81	1
bin	82	1
bin	83	2
bin	84	1
bin	85	1
bin	86	1
bin	87	2
bin	88	1
bin	89	1
bin	90	1
bin	91	2
bin	92	1
bin	93	1
bin	94	1
bin	95	2
bin	96	1
bin	97	1
bin	98	1
bin	99	2
bin	100	1
bin	101	1
bin	102	1
bin	103	2
bin	104	1
bin	105	1
bin	106	1
bin	107	1
bin	108	2
bin	109	1
bin	110	2
bin	111	1
bin	112	1
bin	113	1
bin	114	1
bin	115	1
bin	116	1
bin	117	1
bin	118	2
bin	119	542
scalar SimphonyDHTNetwork.members[8] 	#packetsInTheNetwork 	539
statistic SimphonyDHTNetwork.members[8] 	"packets statistics"
field count 691
field mean 269.17945007236
field stddev 155.66760271042
field sum 186003
field sqrsum 66788543
field min 0
field max 538
attr type  int
bin	-INF	0
bin	-39	0
bin	-38	0
bin	-37	0
bin	-36	0
bin	-35	0
bin	-34	0
bin	-33	0
bin	-32	0
bin	-31	0
bin	-30	0
bin	-29	0
bin	-28	0
bin	-27	0
bin	-26	0
bin	-25	0
bin	-24	0
bin	-23	0
bin	-22	0
bin	-21	0
bin	-20	0
bin	-19	0
bin	-18	0
bin	-17	0
bin	-16	0
bin	-15	0
bin	-14	0
bin	-13	0
bin	-12	0
bin	-11	0
bin	-10	0
bin	-9	0
bin	-8	0
bin	-7	0
bin	-6	0
bin	-5	0
bin	-4	0
bin	-3	0
bin	-2	0
bin	-1	0
bin	0	1
bin	1	1
bin	2	1
bin	3	2
bin	4	1
bin	5	1
bin	6	2
bin	7	1
bin	8	1
bin	9	1
bin	10	2
bin	11	1
bin	12	1
bin	13	2
bin	14	1
bin	15	2
bin	16	1
bin	17	1
bin	18	1
bin	19	2
bin	20	1
bin	21	1
bin	22	2
bin	23	1
bin	24	1
bin	25	1
bin	26	2
bin	27	1
bin	28	1
bin	29	1
bin	30	2
bin	31	1
bin	32	1
bin	33	1
bin	34	2
bin	35	1
bin	36	1
bin	37	2
bin	38	1
bin	39	1
bin	40	1
bin	41	2
bin	42	1
bin	43	1
bin	44	1
bin	45	2
bin	46	1
bin	47	1
bin	48	2
bin	49	1
bin	50	1
bin	51	1
bin	52	2
bin	53	1
bin	54	1
bin	55	1
bin	56	2
bin	57	1
bin	58	1
bin	59	1
bin	60	2
bin	61	1
bin	62	1
bin	63	2
bin	64	1
bin	65	2
bin	66	1
bin	67	1
bin	68	1
bin	69	2
bin	70	1
bin	71	1
bin	72	2
bin	73	1
bin	74	1
bin	75	2
bin	76	1
bin	77	1
bin	78	2
bin	79	1
bin	80	1
bin	81	1
bin	82	2
bin	83	1
bin	84	1
bin	85	1
bin	86	2
bin	87	1
bin	88	1
bin	89	1
bin	90	1
bin	91	2
bin	92	1
bin	93	1
bin	94	1
bin	95	2
bin	96	1
bin	97	1
bin	98	1
bin	99	2
bin	100	1
bin	101	1
bin	102	2
bin	103	1
bin	104	2
bin	105	1
bin	106	1
bin	107	1
bin	108	1
bin	109	2
bin	110	1
bin	111	2
bin	112	1
bin	113	1
bin	114	2
bin	115	1
bin	116	542
scalar SimphonyDHTNetwork.members[9] 	#packetsInTheNetwork 	382
statistic SimphonyDHTNetwork.members[9] 	"packets statistics"
field count 488
field mean 191.25819672131
field stddev 109.78569255584
field sum 93334
field sqrsum 23720654
field min 0
field max 381
attr type  int
bin	-INF	0
bin	-40	0
bin	-39	0
bin	-38	0
bin	-37	0
bin	-36	0
bin	-35	0
bin	-34	0
bin	-33	0
bin	-32	0
bin	-31	0
bin	-30	0
bin	-29	0
bin	-28	0
bin	-27	0
bin	-26	0
bin	-25	0
bin	-24	0
bin	-23	0
bin	-22	0
bin	-21	0
bin	-20	0
bin	-19	0
bin	-18	0
bin	-17	0
bin	-16	0
bin	-15	0
bin	-14	0
bin	-13	0
bin	-12	0
bin	-11	0
bin	-10	0
bin	-9	0
bin	-8	0
bin	-7	0
bin	-6	0
bin	-5	0
bin	-4	0
bin	-3	0
bin	-2	0
bin	-1	0
bin	0	1
bin	1	1
bin	2	2
bin	3	1
bin	4	2
bin	5	1
bin	6	1
bin	7	1
bin	8	1
bin	9	1
bin	10	2
bin	11	1
bin	12	1
bin	13	1
bin	14	2
bin	15	1
bin	16	1
bin	17	1
bin	18	2
bin	19	1
bin	20	1
bin	21	1
bin	22	2
bin	23	1
bin	24	1
bin	25	1
bin	26	2
bin	27	1
bin	28	1
bin	29	1
bin	30	2
bin	31	1
bin	32	1
bin	33	1
bin	34	2
bin	35	1
bin	36	2
bin	37	1
bin	38	1
bin	39	2
bin	40	1
bin	41	2
bin	42	1
bin	43	1
bin	44	1
bin	45	2
bin	46	1
bin	47	1
bin	48	1
bin	49	2
bin	50	1
bin	51	1
bin	52	1
bin	53	2
bin	54	1
bin	55	1
bin	56	1
bin	57	1
bin	58	1
bin	59	1
bin	60	2
bin	61	1
bin	62	1
bin	63	1
bin	64	2
bin	65	1
bin	66	0
bin	67	2
bin	68	2
bin	69	1
bin	70	2
bin	71	1
bin	72	1
bin	73	1
bin	74	1
bin	75	2
bin	76	1
bin	77	1
bin	78	1
bin	79	2
bin	80	1
bin	81	1
bin	82	1
bin	83	2
bin	84	1
bin	85	1
bin	86	1
bin	87	2
bin	88	1
bin	89	1
bin	90	1
bin	91	1
bin	92	1
bin	93	2
bin	94	1
bin	95	1
bin	96	1
bin	97	2
bin	98	1
bin	99	2
bin	100	1
bin	101	1
bin	102	1
bin	103	1
bin	104	1
bin	105	2
bin	106	1
bin	107	1
bin	108	1
bin	109	1
bin	110	2
bin	111	1
bin	112	1
bin	113	1
bin	114	2
bin	115	1
bin	116	1
bin	117	2
bin	118	1
bin	119	339
scalar SimphonyDHTNetwork.members[10] 	#packetsInTheNetwork 	320
statistic SimphonyDHTNetwork.members[10] 	"packets statistics"
field count 404
field mean 158.14356435644
field stddev 92.469989407969
field sum 63890
field sqrsum 13549724
field min 1
field max 319
attr type  int
bin	-INF	0
bin	-37	0
bin	-36	0
bin	-35	0
bin	-34	0
bin	-33	0
bin	-32	0
bin	-31	0
bin	-30	0
bin	-29	0
bin	-28	0
bin	-27	0
bin	-26	0
bin	-25	0
bin	-24	0
bin	-23	0
bin	-22	0
bin	-21	0
bin	-20	0
bin	-19	0
bin	-18	0
bin	-17	0
bin	-16	0
bin	-15	0
bin	-14	0
bin	-13	0
bin	-12	0
bin	-11	0
bin	-10	0
bin	-9	0
bin	-8	0
bin	-7	0
bin	-6	0
bin	-5	0
bin	-4	0
bin	-3	0
bin	-2	0
bin	-1	0
bin	0	0
bin	1	2
bin	2	2
bin	3	1
bin	4	1
bin	5	2
bin	6	1
bin	7	2
bin	8	1
bin	9	1
bin	10	2
bin	11	1
bin	12	1
bin	13	1
bin	14	2
bin	15	1
bin	16	1
bin	17	2
bin	18	1
bin	19	1
bin	20	2
bin	21	1
bin	22	1
bin	23	1
bin	24	2
bin	25	1
bin	26	1
bin	27	1
bin	28	2
bin	29	1
bin	30	1
bin	31	1
bin	32	2
bin	33	1
bin	34	1
bin	35	1
bin	36	1
bin	37	1
bin	38	1
bin	39	2
bin	40	1
bin	41	1
bin	42	1
bin	43	2
bin	44	1
bin	45	1
bin	46	2
bin	47	1
bin	48	1
bin	49	2
bin	50	1
bin	51	1
bin	52	2
bin	53	1
bin	54	1
bin	55	2
bin	56	1
bin	57	1
bin	58	2
bin	59	1
bin	60	1
bin	61	1
bin	62	2
bin	63	1
bin	64	1
bin	65	2
bin	66	1
bin	67	1
bin	68	2
bin	69	1
bin	70	1
bin	71	2
bin	72	1
bin	73	1
bin	74	1
bin	75	2
bin	76	1
bin	77	1
bin	78	1
bin	79	1
bin	80	2
bin	81	1
bin	82	1
bin	83	1
bin	84	2
bin	85	1
bin	86	1
bin	87	1
bin	88	2
bin	89	1
bin	90	2
bin	91	1
bin	92	1
bin	93	2
bin	94	1
bin	95	1
bin	96	1
bin	97	2
bin	98	1
bin	99	1
bin	100	2
bin	101	1
bin	102	1
bin	103	2
bin	104	1
bin	105	1
bin	106	2
bin	107	1
bin	108	1
bin	109	1
bin	110	2
bin	111	1
bin	112	1
bin	113	1
bin	114	2
bin	115	256
scalar SimphonyDHTNetwork.members[11] 	#packetsInTheNetwork 	281
statistic SimphonyDHTNetwork.members[11] 	"packets statistics"
field count 363
field mean 141.22865013774
field stddev 80.638577438948
field sum 51266
field sqrsum 9594162
field min 1
field max 280
attr type  int
bin	-INF	0
bin	-38	0
bin	-37	0
bin	-36	0
bin	-35	0
bin	-34	0
bin	-33	0
bin	-32	0
bin	-31	0
bin	-30	0
bin	-29	0
bin	-28	0
bin	-27	0
bin	-26	0
bin	-25	0
bin	-24	0
bin	-23	0
bin	-22	0
bin	-21	0
bin	-20	0
bin	-19	0
bin	-18	0
bin	-17	0
bin	-16	0
bin	-15	0
bin	-14	0
bin	-13	0
bin	-12	0
bin	-11	0
bin	-10	0
bin	-9	0
bin	-8	0
bin	-7	0
bin	-6	0
bin	-5	0
bin	-4	0
bin	-3	0
bin	-2	0
bin	-1	0
bin	0	0
bin	1	2
bin	2	2
bin	3	1
bin	4	1
bin	5	1
bin	6	2
bin	7	1
bin	8	1
bin	9	1
bin	10	1
bin	11	2
bin	12	1
bin	13	1
bin	14	2
bin	15	1
bin	16	1
bin	17	1
bin	18	1
bin	19	2
bin	20	1
bin	21	1
bin	22	1
bin	23	2
bin	24	1
bin	25	1
bin	26	1
bin	27	2
bin	28	1
bin	29	1
bin	30	1
bin	31	2
bin	32	1
bin	33	2
bin	34	1
bin	35	1
bin	36	1
bin	37	2
bin	38	1
bin	39	1
bin	40	1
bin	41	1
bin	42	2
bin	43	1
bin	44	1
bin	45	1
bin	46	1
bin	47	2
bin	48	1
bin	49	1
bin	50	1
bin	51	2
bin	52	1
bin	53	1
bin	54	1
bin	55	2
bin	56	1
bin	57	1
bin	58	1
bin	59	2
bin	60	1
bin	61	2
bin	62	1
bin	63	1
bin	64	1
bin	65	2
bin	66	1
bin	67	1
bin	68	2
bin	69	1
bin	70	1
bin	71	2
bin	72	1
bin	73	1
bin	74	1
bin	75	2
bin	76	1
bin	77	2
bin	78	1
bin	79	1
bin	80	1
bin	81	1
bin	82	1
bin	83	1
bin	84	2
bin	85	1
bin	86	1
bin	87	1
bin	88	1
bin	89	2
bin	90	1
bin	91	1
bin	92	1
bin	93	1
bin	94	1
bin	95	2
bin	96	2
bin	97	1
bin	98	2
bin	99	1
bin	100	1
bin	101	1
bin	102	1
bin	103	1
bin	104	2
bin	105	1
bin	106	1
bin	107	2
bin	108	1
bin	109	1
bin	110	1
bin	111	2
bin	112	1
bin	113	1
bin	114	1
bin	115	2
bin	116	1
bin	117	216
scalar SimphonyDHTNetwork.members[12] 	#packetsInTheNetwork 	221
statistic SimphonyDHTNetwork.members[12] 	"packets statistics"
field count 281
field mean 109.68683274021
field stddev 63.839375480328
field sum 30822
field sqrsum 4521898
field min 0
field max 220
attr type  int
bin	-INF	0
bin	-39	0
bin	-38	0
bin	-37	0
bin	-36	0
bin	-35	0
bin	-34	0
bin	-33	0
bin	-32	0
bin	-31	0
bin	-30	0
bin	-29	0
bin	-28	0
bin	-27	0
bin	-26	0
bin	-25	0
bin	-24	0
bin	-23	0
bin	-22	0
bin	-21	0
bin	-20	0
bin	-19	0
bin	-18	0
bin	-17	0
bin	-16	0
bin	-15	0
bin	-14	0
bin	-13	0
bin	-12	0
bin	-11	0
bin	-10	0
bin	-9	0
bin	-8	0
bin	-7	0
bin	-6	0
bin	-5	0
bin	-4	0
bin	-3	0
bin	-2	0
bin	-1	0
bin	0	1
bin	1	1
bin	2	1
bin	3	2
bin	4	1
bin	5	2
bin	6	1
bin	7	1
bin	8	1
bin	9	2
bin	10	1
bin	11	1
bin	12	2
bin	13	1
bin	14	1
bin	15	2
bin	16	1
bin	17	1
bin	18	2
bin	19	1
bin	20	1
bin	21	2
bin	22	1
bin	23	1
bin	24	1
bin	25	2
bin	26	1
bin	27	1
bin	28	1
bin	29	2
bin	30	1
bin	31	1
bin	32	1
bin	33	2
bin	34	1
bin	35	1
bin	36	1
bin	37	2
bin	38	1
bin	39	1
bin	40	2
bin	41	1
bin	42	1
bin	43	2
bin	44	1
bin	45	1
bin	46	1
bin	47	1
bin	48	2
bin	49	1
bin	50	1
bin	51	2
bin	52	1
bin	53	1
bin	54	2
bin	55	1
bin	56	1
bin	57	1
bin	58	2
bin	59	1
bin	60	1
bin	61	1
bin	62	2
bin	63	1
bin	64	1
bin	65	1
bin	66	1
bin	67	1
bin	68	1
bin	69	2
bin	70	1
bin	71	1
bin	72	1
bin	73	2
bin	74	1
bin	75	1
bin	76	2
bin	77	1
bin	78	1
bin	79	2
bin	80	1
bin	81	1
bin	82	1
bin	83	1
bin	84	1
bin	85	1
bin	86	1
bin	87	1
bin	88	2
bin	89	0
bin	90	2
bin	91	2
bin	92	2
bin	93	1
bin	94	1
bin	95	2
bin	96	1
bin	97	1
bin	98	2
bin	99	1
bin	100	0
bin	101	2
bin	102	1
bin	103	2
bin	104	2
bin	105	1
bin	106	1
bin	107	2
bin	108	1
bin	109	2
bin	110	2
bin	111	1
bin	112	2
bin	113	1
bin	114	1
bin	115	2
bin	116	1
bin	117	130
scalar SimphonyDHTNetwork.members[13] 	#packetsInTheNetwork 	210
statistic SimphonyDHTNetwork.members[13] 	"packets statistics"
field count 272
field mean 104.34558823529
field stddev 60.80522150288
field sum 28382
field sqrsum 3963498
field min 0
field max 209
attr type  int
bin	-INF	0
bin	-38	0
bin	-37	0
bin	-36	0
bin	-35	0
bin	-34	0
bin	-33	0
bin	-32	0
bin	-31	0
bin	-30	0
bin	-29	0
bin	-28	0
bin	-27	0
bin	-26	0
bin	-25	0
bin	-24	0
bin	-23	0
bin	-22	0
bin	-21	0
bin	-20	0
bin	-19	0
bin	-18	0
bin	-17	0
bin	-16	0
bin	-15	0
bin	-14	0
bin	-13	0
bin	-12	0
bin	-11	0
bin	-10	0
bin	-9	0
bin	-8	0
bin	-7	0
bin	-6	0
bin	-5	0
bin	-4	0
bin	-3	0
bin	-2	0
bin	-1	0
bin	0	1
bin	1	2
bin	2	1
bin	3	1
bin	4	1
bin	5	2
bin	6	1
bin	7	1
bin	8	2
bin	9	1
bin	10	1
bin	11	2
bin	12	1
bin	13	1
bin	14	2
bin	15	1
bin	16	1
bin	17	1
bin	18	2
bin	19	1
bin	20	1
bin	21	2
bin	22	1
bin	23	0
bin	24	2
bin	25	2
bin	26	1
bin	27	2
bin	28	1
bin	29	1
bin	30	2
bin	31	1
bin	32	1
bin	33	1
bin	34	2
bin	35	1
bin	36	1
bin	37	2
bin	38	1
bin	39	1
bin	40	1
bin	41	2
bin	42	2
bin	43	1
bin	44	2
bin	45	1
bin	46	1
bin	47	1
bin	48	2
bin	49	1
bin	50	1
bin	51	1
bin	52	2
bin	53	1
bin	54	1
bin	55	2
bin	56	1
bin	57	1
bin	58	1
bin	59	1
bin	60	1
bin	61	1
bin	62	1
bin	63	2
bin	64	1
bin	65	1
bin	66	1
bin	67	1
bin	68	2
bin	69	1
bin	70	1
bin	71	1
bin	72	2
bin	73	2
bin	74	1
bin	75	2
bin	76	1
bin	77	1
bin	78	1
bin	79	2
bin	80	1
bin	81	1
bin	82	1
bin	83	2
bin	84	1
bin	85	0
bin	86	2
bin	87	2
bin	88	1
bin	89	2
bin	90	1
bin	91	1
bin	92	2
bin	93	1
bin	94	1
bin	95	1
bin	96	2
bin	97	1
bin	98	2
bin	99	1
bin	100	1
bin	101	2
bin	102	1
bin	103	1
bin	104	1
bin	105	2
bin	106	1
bin	107	1
bin	108	1
bin	109	2
bin	110	1
bin	111	2
bin	112	1
bin	113	1
bin	114	124
scalar SimphonyDHTNetwork.members[14] 	#packetsInTheNetwork 	260
statistic SimphonyDHTNetwork.members[14] 	"packets statistics"
field count 327
field mean 130.57798165138
field stddev 74.97835600714
field sum 42699
field sqrsum 7408241
field min 0
field max 259
attr type  int
bin	-INF	0
bin	-41	0
bin	-40	0
bin	-39	0
bin	-38	0
bin	-37	0
bin	-36	0
bin	-35	0
bin	-34	0
bin	-33	0
bin	-32	0
bin	-31	0
bin	-30	0
bin	-29	0
bin	-28	0
bin	-27	0
bin	-26	0
bin	-25	0
bin	-24	0
bin	-23	0
bin	-22	0
bin	-21	0
bin	-20	0
bin	-19	0
bin	-18	0
bin	-17	0
bin	-16	0
bin	-15	0
bin	-14	0
bin	-13	0
bin	-12	0
bin	-11	0
bin	-10	0
bin	-9	0
bin	-8	0
bin	-7	0
bin	-6	0
bin	-5	0
bin	-4	0
bin	-3	0
bin	-2	0
bin	-1	0
bin	0	1
bin	1	1
bin	2	2
bin	3	1
bin	4	1
bin	5	1
bin	6	2
bin	7	1
bin	8	1
bin	9	1
bin	10	1
bin	11	2
bin	12	1
bin	13	1
bin	14	1
bin	15	1
bin	16	2
bin	17	1
bin	18	1
bin	19	2
bin	20	1
bin	21	0
bin	22	2
bin	23	2
bin	24	1
bin	25	2
bin	26	1
bin	27	1
bin	28	1
bin	29	2
bin	30	1
bin	31	1
bin	32	1
bin	33	1
bin	34	2
bin	35	1
bin	36	2
bin	37	2
bin	38	1
bin	39	1
bin	40	1
bin	41	1
bin	42	1
bin	43	1
bin	44	1
bin	45	0
bin	46	2
bin	47	2
bin	48	1
bin	49	1
bin	50	1
bin	51	1
bin	52	1
bin	53	1
bin	54	2
bin	55	1
bin	56	1
bin	57	1
bin	58	1
bin	59	1
bin	60	1
bin	61	1
bin	62	2
bin	63	1
bin	64	1
bin	65	1
bin	66	1
bin	67	1
bin	68	1
bin	69	2
bin	70	1
bin	71	2
bin	72	1
bin	73	1
bin	74	1
bin	75	1
bin	76	1
bin	77	0
bin	78	2
bin	79	2
bin	80	1
bin	81	2
bin	82	1
bin	83	2
bin	84	1
bin	85	1
bin	86	2
bin	87	1
bin	88	1
bin	89	1
bin	90	2
bin	91	1
bin	92	1
bin	93	1
bin	94	1
bin	95	2
bin	96	0
bin	97	2
bin	98	2
bin	99	1
bin	100	1
bin	101	1
bin	102	1
bin	103	0
bin	104	2
bin	105	1
bin	106	2
bin	107	1
bin	108	2
bin	109	1
bin	110	2
bin	111	2
bin	112	1
bin	113	2
bin	114	1
bin	115	1
bin	116	1
bin	117	1
bin	118	2
bin	119	1
bin	120	1
bin	121	2
bin	122	175
scalar SimphonyDHTNetwork.members[15] 	#packetsInTheNetwork 	310
statistic SimphonyDHTNetwork.members[15] 	"packets statistics"
field count 388
field mean 154.3324742268
field stddev 89.666509766508
field sum 59881
field sqrsum 12353095
field min 0
field max 309
attr type  int
bin	-INF	0
bin	-39	0
bin	-38	0
bin	-37	0
bin	-36	0
bin	-35	0
bin	-34	0
bin	-33	0
bin	-32	0
bin	-31	0
bin	-30	0
bin	-29	0
bin	-28	0
bin	-27	0
bin	-26	0
bin	-25	0
bin	-24	0
bin	-23	0
bin	-22	0
bin	-21	0
bin	-20	0
bin	-19	0
bin	-18	0
bin	-17	0
bin	-16	0
bin	-15	0
bin	-14	0
bin	-13	0
bin	-12	0
bin	-11	0
bin	-10	0
bin	-9	0
bin	-8	0
bin	-7	0
bin	-6	0
bin	-5	0
bin	-4	0
bin	-3	0
bin	-2	0
bin	-1	0
bin	0	1
bin	1	1
bin	2	2
bin	3	1
bin	4	1
bin	5	1
bin	6	1
bin	7	1
bin	8	1
bin	9	2
bin	10	1
bin	11	1
bin	12	2
bin	13	1
bin	14	1
bin	15	1
bin	16	2
bin	17	1
bin	18	1
bin	19	1
bin	20	1
bin	21	2
bin	22	1
bin	23	2
bin	24	1
bin	25	1
bin	26	1
bin	27	1
bin	28	1
bin	29	1
bin	30	2
bin	31	1
bin	32	1
bin	33	1
bin	34	2
bin	35	1
bin	36	1
bin	37	1
bin	38	2
bin	39	1
bin	40	1
bin	41	1
bin	42	2
bin	43	1
bin	44	1
bin	45	1
bin	46	2
bin	47	1
bin	48	1
bin	49	2
bin	50	1
bin	51	1
bin	52	2
bin	53	1
bin	54	2
bin	55	1
bin	56	1
bin	57	2
bin	58	1
bin	59	1
bin	60	2
bin	61	1
bin	62	1
bin	63	1
bin	64	2
bin	65	1
bin	66	2
bin	67	1
bin	68	1
bin	69	1
bin	70	2
bin	71	1
bin	72	1
bin	73	2
bin	74	1
bin	75	1
bin	76	1
bin	77	2
bin	78	1
bin	79	1
bin	80	1
bin	81	1
bin	82	2
bin	83	2
bin	84	1
bin	85	2
bin	86	1
bin	87	1
bin	88	1
bin	89	2
bin	90	1
bin	91	1
bin	92	1
bin	93	1
bin	94	2
bin	95	1
bin	96	1
bin	97	2
bin	98	1
bin	99	1
bin	100	1
bin	101	2
bin	102	1
bin	103	1
bin	104	1
bin	105	2
bin	106	1
bin	107	1
bin	108	1
bin	109	2
bin	110	1
bin	111	1
bin	112	1
bin	113	2
bin	114	1
bin	115	1
bin	116	2
bin	117	239
scalar SimphonyDHTNetwork.members[16] 	#packetsInTheNetwork 	181
statistic SimphonyDHTNetwork.members[16] 	"packets statistics"
field count 234
field mean 89.880341880342
field stddev 51.883438589618
field sum 21032
field sqrsum 2517574
field min 0
field max 180
attr type  int
bin	-INF	0
bin	-39	0
bin	-38	0
bin	-37	0
bin	-36	0
bin	-35	0
bin	-34	0
bin	-33	0
bin	-32	0
bin	-31	0
bin	-30	0
bin	-29	0
bin	-28	0
bin	-27	0
bin	-26	0
bin	-25	0
bin	-24	0
bin	-23	0
bin	-22	0
bin	-21	0
bin	-20	0
bin	-19	0
bin	-18	0
bin	-17	0
bin	-16	0
bin	-15	0
bin	-14	0
bin	-13	0
bin	-12	0
bin	-11	0
bin	-10	0
bin	-9	0
bin	-8	0
bin	-7	0
bin	-6	0
bin	-5	0
bin	-4	0
bin	-3	0
bin	-2	0
bin	-1	0
bin	0	1
bin	1	1
bin	2	2
bin	3	1
bin	4	1
bin	5	1
bin	6	1
bin	7	2
bin	8	2
bin	9	1
bin	10	2
bin	11	1
bin	12	1
bin	13	1
bin	14	2
bin	15	1
bin	16	1
bin	17	1
bin	18	2
bin	19	1
bin	20	1
bin	21	1
bin	22	1
bin	23	1
bin	24	2
bin	25	1
bin	26	1
bin	27	2
bin	28	1
bin	29	1
bin	30	1
bin	31	1
bin	32	2
bin	33	1
bin	34	1
bin	35	1
bin	36	2
bin	37	1
bin	38	2
bin	39	1
bin	40	1
bin	41	1
bin	42	2
bin	43	1
bin	44	1
bin	45	2
bin	46	1
bin	47	1
bin	48	1
bin	49	2
bin	50	1
bin	51	1
bin	52	1
bin	53	2
bin	54	1
bin	55	1
bin	56	2
bin	57	1
bin	58	1
bin	59	1
bin	60	2
bin	61	1
bin	62	1
bin	63	1
bin	64	2
bin	65	1
bin	66	1
bin	67	1
bin	68	2
bin	69	1
bin	70	1
bin	71	1
bin	72	2
bin	73	1
bin	74	2
bin	75	2
bin	76	1
bin	77	2
bin	78	1
bin	79	1
bin	80	1
bin	81	2
bin	82	1
bin	83	2
bin	84	1
bin	85	1
bin	86	2
bin	87	1
bin	88	1
bin	89	1
bin	90	2
bin	91	1
bin	92	1
bin	93	1
bin	94	2
bin	95	1
bin	96	1
bin	97	1
bin	98	2
bin	99	1
bin	100	2
bin	101	1
bin	102	2
bin	103	1
bin	104	2
bin	105	1
bin	106	2
bin	107	2
bin	108	1
bin	109	2
bin	110	1
bin	111	1
bin	112	1
bin	113	2
bin	114	1
bin	115	1
bin	116	82
scalar SimphonyDHTNetwork.members[17] 	#packetsInTheNetwork 	290
statistic SimphonyDHTNetwork.members[17] 	"packets statistics"
field count 369
field mean 145.0081300813
field stddev 84.336524651209
field sum 53508
field sqrsum 10376550
field min 0
field max 289
attr type  int
bin	-INF	0
bin	-39	0
bin	-38	0
bin	-37	0
bin	-36	0
bin	-35	0
bin	-34	0
bin	-33	0
bin	-32	0
bin	-31	0
bin	-30	0
bin	-29	0
bin	-28	0
bin	-27	0
bin	-26	0
bin	-25	0
bin	-24	0
bin	-23	0
bin	-22	0
bin	-21	0
bin	-20	0
bin	-19	0
bin	-18	0
bin	-17	0
bin	-16	0
bin	-15	0
bin	-14	0
bin	-13	0
bin	-12	0
bin	-11	0
bin	-10	0
bin	-9	0
bin	-8	0
bin	-7	0
bin	-6	0
bin	-5	0
bin	-4	0
bin	-3	0
bin	-2	0
bin	-1	0
bin	0	1
bin	1	1
bin	2	2
bin	3	1
bin	4	1
bin	5	1
bin	6	2
bin	7	1
bin	8	2
bin	9	2
bin	10	1
bin	11	1
bin	12	1
bin	13	2
bin	14	1
bin	15	1
bin	16	1
bin	17	2
bin	18	1
bin	19	2
bin	20	1
bin	21	2
bin	22	1
bin	23	2
bin	24	1
bin	25	2
bin	26	2
bin	27	1
bin	28	1
bin	29	1
bin	30	2
bin	31	1
bin	32	1
bin	33	1
bin	34	1
bin	35	1
bin	36	1
bin	37	2
bin	38	1
bin	39	1
bin	40	1
bin	41	1
bin	42	1
bin	43	0
bin	44	2
bin	45	2
bin	46	1
bin	47	1
bin	48	1
bin	49	2
bin	50	1
bin	51	1
bin	52	1
bin	53	2
bin	54	1
bin	55	1
bin	56	1
bin	57	1
bin	58	1
bin	59	2
bin	60	1
bin	61	1
bin	62	1
bin	63	2
bin	64	1
bin	65	1
bin	66	1
bin	67	1
bin	68	2
bin	69	1
bin	70	1
bin	71	1
bin	72	2
bin	73	1
bin	74	1
bin	75	1
bin	76	1
bin	77	1
bin	78	2
bin	79	1
bin	80	1
bin	81	1
bin	82	2
bin	83	1
bin	84	1
bin	85	1
bin	86	1
bin	87	1
bin	88	2
bin	89	1
bin	90	1
bin	91	1
bin	92	2
bin	93	1
bin	94	1
bin	95	1
bin	96	2
bin	97	1
bin	98	2
bin	99	2
bin	100	1
bin	101	2
bin	102	1
bin	103	1
bin	104	1
bin	105	2
bin	106	1
bin	107	2
bin	108	2
bin	109	1
bin	110	2
bin	111	1
bin	112	1
bin	113	1
bin	114	2
bin	115	1
bin	116	1
bin	117	219
scalar SimphonyDHTNetwork.members[18] 	#packetsInTheNetwork 	424
statistic SimphonyDHTNetwork.members[18] 	"packets statistics"
field count 544
field mean 211.11580882353
field stddev 122.04547128368
field sum 114847
field sqrsum 32334055
field min 0
field max 423
attr type  int
bin	-INF	0
bin	-39	0
bin	-38	0
bin	-37	0
bin	-36	0
bin	-35	0
bin	-34	0
bin	-33	0
bin	-32	0
bin	-31	0
bin	-30	0
bin	-29	0
bin	-28	0
bin	-27	0
bin	-26	0
bin	-25	0
bin	-24	0
bin	-23	0
bin	-22	0
bin	-21	0
bin	-20	0
bin	-19	0
bin	-18	0
bin	-17	0
bin	-16	0
bin	-15	0
bin	-14	0
bin	-13	0
bin	-12	0
bin	-11	0
bin	-10	0
bin	-9	0
bin	-8	0
bin	-7	0
bin	-6	0
bin	-5	0
bin	-4	0
bin	-3	0
bin	-2	0
bin	-1	0
bin	0	1
bin	1	1
bin	2	1
bin	3	1
bin	4	2
bin	5	1
bin	6	1
bin	7	2
bin	8	1
bin	9	1
bin	10	2
bin	11	1
bin	12	1
bin	13	2
bin	14	1
bin	15	1
bin	16	2
bin	17	1
bin	18	1
bin	19	1
bin	20	1
bin	21	2
bin	22	1
bin	23	1
bin	24	1
bin	25	1
bin	26	2
bin	27	2
bin	28	1
bin	29	2
bin	30	1
bin	31	1
bin	32	1
bin	33	2
bin	34	1
bin	35	1
bin	36	1
bin	37	2
bin	38	1
bin	39	1
bin	40	2
bin	41	1
bin	42	1
bin	43	2
bin	44	1
bin	45	1
bin	46	2
bin	47	1
bin	48	1
bin	49	1
bin	50	1
bin	51	1
bin	52	2
bin	53	1
bin	54	2
bin	55	1
bin	56	1
bin	57	1
bin	58	2
bin	59	1
bin	60	1
bin	61	1
bin	62	1
bin	63	2
bin	64	1
bin	65	1
bin	66	2
bin	67	1
bin	68	1
bin	69	2
bin	70	1
bin	71	1
bin	72	2
bin	73	1
bin	74	1
bin	75	1
bin	76	2
bin	77	1
bin	78	1
bin	79	1
bin	80	2
bin	81	1
bin	82	1
bin	83	1
bin	84	2
bin	85	1
bin	86	1
bin	87	2
bin	88	1
bin	89	1
bin	90	1
bin	91	2
bin	92	1
bin	93	1
bin	94	1
bin	95	2
bin	96	1
bin	97	1
bin	98	2
bin	99	1
bin	100	1
bin	101	1
bin	102	2
bin	103	1
bin	104	0
bin	105	2
bin	106	2
bin	107	2
bin	108	1
bin	109	1
bin	110	1
bin	111	2
bin	112	1
bin	113	1
bin	114	1
bin	115	2
bin	116	395
scalar SimphonyDHTNetwork.members[19] 	#packetsInTheNetwork 	277
statistic SimphonyDHTNetwork.members[19] 	"packets statistics"
field count 354
field mean 136.15536723164
field stddev 81.054880418556
field sum 48199
field sqrsum 8881725
field min 0
field max 276
attr type  int
bin	-INF	0
bin	-36	0
bin	-35	0
bin	-34	0
bin	-33	0
bin	-32	0
bin	-31	0
bin	-30	0
bin	-29	0
bin	-28	0
bin	-27	0
bin	-26	0
bin	-25	0
bin	-24	0
bin	-23	0
bin	-22	0
bin	-21	0
bin	-20	0
bin	-19	0
bin	-18	0
bin	-17	0
bin	-16	0
bin	-15	0
bin	-14	0
bin	-13	0
bin	-12	0
bin	-11	0
bin	-10	0
bin	-9	0
bin	-8	0
bin	-7	0
bin	-6	0
bin	-5	0
bin	-4	0
bin	-3	0
bin	-2	0
bin	-1	0
bin	0	1
bin	1	1
bin	2	1
bin	3	2
bin	4	2
bin	5	1
bin	6	2
bin	7	1
bin	8	1
bin	9	1
bin	10	1
bin	11	2
bin	12	1
bin	13	1
bin	14	2
bin	15	1
bin	16	1
bin	17	1
bin	18	2
bin	19	1
bin	20	1
bin	21	2
bin	22	1
bin	23	2
bin	24	2
bin	25	1
bin	26	2
bin	27	1
bin	28	1
bin	29	2
bin	30	1
bin	31	1
bin	32	1
bin	33	2
bin	34	1
bin	35	1
bin	36	1
bin	37	2
bin	38	1
bin	39	2
bin	40	1
bin	41	2
bin	42	1
bin	43	2
bin	44	1
bin	45	2
bin	46	2
bin	47	1
bin	48	2
bin	49	1
bin	50	1
bin	51	1
bin	52	2
bin	53	1
bin	54	0
bin	55	3
bin	56	2
bin	57	2
bin	58	1
bin	59	1
bin	60	2
bin	61	1
bin	62	1
bin	63	1
bin	64	2
bin	65	1
bin	66	1
bin	67	1
bin	68	2
bin	69	1
bin	70	1
bin	71	1
bin	72	2
bin	73	1
bin	74	1
bin	75	1
bin	76	2
bin	77	1
bin	78	1
bin	79	1
bin	80	1
bin	81	2
bin	82	1
bin	83	1
bin	84	1
bin	85	2
bin	86	1
bin	87	1
bin	88	1
bin	89	2
bin	90	1
bin	91	1
bin	92	1
bin	93	2
bin	94	1
bin	95	1
bin	96	1
bin	97	2
bin	98	1
bin	99	1
bin	100	1
bin	101	2
bin	102	1
bin	103	1
bin	104	1
bin	105	2
bin	106	1
bin	107	1
bin	108	211
scalar SimphonyDHTNetwork.members[20] 	#packetsInTheNetwork 	335
statistic SimphonyDHTNetwork.members[20] 	"packets statistics"
field count 439
field mean 166.44646924829
field stddev 96.890166269323
field sum 73070
field sqrsum 16274058
field min 0
field max 334
attr type  int
bin	-INF	0
bin	-38	0
bin	-37	0
bin	-36	0
bin	-35	0
bin	-34	0
bin	-33	0
bin	-32	0
bin	-31	0
bin	-30	0
bin	-29	0
bin	-28	0
bin	-27	0
bin	-26	0
bin	-25	0
bin	-24	0
bin	-23	0
bin	-22	0
bin	-21	0
bin	-20	0
bin	-19	0
bin	-18	0
bin	-17	0
bin	-16	0
bin	-15	0
bin	-14	0
bin	-13	0
bin	-12	0
bin	-11	0
bin	-10	0
bin	-9	0
bin	-8	0
bin	-7	0
bin	-6	0
bin	-5	0
bin	-4	0
bin	-3	0
bin	-2	0
bin	-1	0
bin	0	1
bin	1	2
bin	2	1
bin	3	2
bin	4	2
bin	5	1
bin	6	2
bin	7	1
bin	8	1
bin	9	2
bin	10	1
bin	11	1
bin	12	2
bin	13	1
bin	14	1
bin	15	1
bin	16	2
bin	17	1
bin	18	1
bin	19	1
bin	20	1
bin	21	2
bin	22	1
bin	23	1
bin	24	2
bin	25	1
bin	26	1
bin	27	1
bin	28	1
bin	29	2
bin	30	1
bin	31	1
bin	32	2
bin	33	1
bin	34	1
bin	35	2
bin	36	1
bin	37	1
bin	38	1
bin	39	2
bin	40	1
bin	41	1
bin	42	2
bin	43	1
bin	44	1
bin	45	2
bin	46	1
bin	47	1
bin	48	2
bin	49	1
bin	50	1
bin	51	2
bin	52	1
bin	53	1
bin	54	2
bin	55	1
bin	56	1
bin	57	2
bin	58	1
bin	59	1
bin	60	1
bin	61	2
bin	62	1
bin	63	1
bin	64	2
bin	65	1
bin	66	1
bin	67	2
bin	68	1
bin	69	1
bin	70	2
bin	71	1
bin	72	1
bin	73	2
bin	74	1
bin	75	1
bin	76	2
bin	77	1
bin	78	1
bin	79	1
bin	80	2
bin	81	1
bin	82	1
bin	83	1
bin	84	1
bin	85	2
bin	86	2
bin	87	1
bin	88	2
bin	89	1
bin	90	1
bin	91	1
bin	92	1
bin	93	1
bin	94	2
bin	95	1
bin	96	1
bin	97	1
bin	98	2
bin	99	1
bin	100	1
bin	101	2
bin	102	1
bin	103	1
bin	104	2
bin	105	1
bin	106	1
bin	107	2
bin	108	1
bin	109	2
bin	110	1
bin	111	1
bin	112	0
bin	113	292
scalar SimphonyDHTNetwork.members[21] 	#packetsInTheNetwork 	237
statistic SimphonyDHTNetwork.members[21] 	"packets statistics"
field count 302
field mean 120.37748344371
field stddev 68.440020710414
field sum 36354
field sqrsum 5786098
field min 0
field max 236
attr type  int
bin	-INF	0
bin	-41	0
bin	-40	0
bin	-39	0
bin	-38	0
bin	-37	0
bin	-36	0
bin	-35	0
bin	-34	0
bin	-33	0
bin	-32	0
bin	-31	0
bin	-30	0
bin	-29	0
bin	-28	0
bin	-27	0
bin	-26	0
bin	-25	0
bin	-24	0
bin	-23	0
bin	-22	0
bin	-21	0
bin	-20	0
bin	-19	0
bin	-18	0
bin	-17	0
bin	-16	0
bin	-15	0
bin	-14	0
bin	-13	0
bin	-12	0
bin	-11	0
bin	-10	0
bin	-9	0
bin	-8	0
bin	-7	0
bin	-6	0
bin	-5	0
bin	-4	0
bin	-3	0
bin	-2	0
bin	-1	0
bin	0	1
bin	1	1
bin	2	1
bin	3	1
bin	4	1
bin	5	1
bin	6	2
bin	7	1
bin	8	1
bin	9	1
bin	10	2
bin	11	1
bin	12	1
bin	13	2
bin	14	1
bin	15	1
bin	16	2
bin	17	1
bin	18	1
bin	19	2
bin	20	1
bin	21	1
bin	22	2
bin	23	1
bin	24	1
bin	25	1
bin	26	1
bin	27	1
bin	28	1
bin	29	1
bin	30	2
bin	31	1
bin	32	1
bin	33	1
bin	34	1
bin	35	1
bin	36	1
bin	37	2
bin	38	1
bin	39	1
bin	40	1
bin	41	2
bin	42	1
bin	43	1
bin	44	1
bin	45	2
bin	46	1
bin	47	1
bin	48	1
bin	49	2
bin	50	1
bin	51	2
bin	52	2
bin	53	1
bin	54	1
bin	55	1
bin	56	1
bin	57	2
bin	58	1
bin	59	1
bin	60	1
bin	61	1
bin	62	1
bin	63	1
bin	64	1
bin	65	1
bin	66	2
bin	67	1
bin	68	1
bin	69	1
bin	70	1
bin	71	1
bin	72	1
bin	73	1
bin	74	2
bin	75	1
bin	76	1
bin	77	1
bin	78	2
bin	79	1
bin	80	1
bin	81	1
bin	82	1
bin	83	2
bin	84	2
bin	85	1
bin	86	2
bin	87	1
bin	88	1
bin	89	1
bin	90	2
bin	91	1
bin	92	1
bin	93	1
bin	94	2
bin	95	1
bin	96	1
bin	97	1
bin	98	2
bin	99	1
bin	100	1
bin	101	1
bin	102	2
bin	103	1
bin	104	1
bin	105	1
bin	106	2
bin	107	1
bin	108	0
bin	109	2
bin	110	2
bin	111	1
bin	112	2
bin	113	1
bin	114	1
bin	115	1
bin	116	2
bin	117	1
bin	118	1
bin	119	2
bin	120	1
bin	121	1
bin	122	1
bin	123	150
scalar SimphonyDHTNetwork.members[22] 	#packetsInTheNetwork 	211
statistic SimphonyDHTNetwork.members[22] 	"packets statistics"
field count 273
field mean 105.38461538462
field stddev 61.18092189253
field sum 28770
field sqrsum 4050040
field min 0
field max 210
attr type  int
bin	-INF	0
bin	-38	0
bin	-37	0
bin	-36	0
bin	-35	0
bin	-34	0
bin	-33	0
bin	-32	0
bin	-31	0
bin	-30	0
bin	-29	0
bin	-28	0
bin	-27	0
bin	-26	0
bin	-25	0
bin	-24	0
bin	-23	0
bin	-22	0
bin	-21	0
bin	-20	0
bin	-19	0
bin	-18	0
bin	-17	0
bin	-16	0
bin	-15	0
bin	-14	0
bin	-13	0
bin	-12	0
bin	-11	0
bin	-10	0
bin	-9	0
bin	-8	0
bin	-7	0
bin	-6	0
bin	-5	0
bin	-4	0
bin	-3	0
bin	-2	0
bin	-1	0
bin	0	1
bin	1	1
bin	2	1
bin	3	1
bin	4	2
bin	5	2
bin	6	1
bin	7	2
bin	8	1
bin	9	1
bin	10	1
bin	11	2
bin	12	1
bin	13	1
bin	14	1
bin	15	1
bin	16	2
bin	17	1
bin	18	1
bin	19	2
bin	20	1
bin	21	1
bin	22	1
bin	23	1
bin	24	2
bin	25	1
bin	26	1
bin	27	1
bin	28	2
bin	29	1
bin	30	1
bin	31	2
bin	32	1
bin	33	1
bin	34	2
bin	35	1
bin	36	1
bin	37	2
bin	38	1
bin	39	1
bin	40	2
bin	41	1
bin	42	2
bin	43	1
bin	44	1
bin	45	2
bin	46	1
bin	47	1
bin	48	2
bin	49	1
bin	50	1
bin	51	1
bin	52	2
bin	53	1
bin	54	1
bin	55	2
bin	56	1
bin	57	1
bin	58	2
bin	59	1
bin	60	1
bin	61	1
bin	62	2
bin	63	1
bin	64	2
bin	65	1
bin	66	1
bin	67	1
bin	68	1
bin	69	1
bin	70	2
bin	71	1
bin	72	1
bin	73	2
bin	74	1
bin	75	1
bin	76	2
bin	77	1
bin	78	1
bin	79	1
bin	80	2
bin	81	1
bin	82	1
bin	83	1
bin	84	2
bin	85	1
bin	86	1
bin	87	2
bin	88	1
bin	89	1
bin	90	1
bin	91	2
bin	92	1
bin	93	1
bin	94	2
bin	95	1
bin	96	2
bin	97	1
bin	98	1
bin	99	2
bin	100	1
bin	101	1
bin	102	2
bin	103	1
bin	104	1
bin	105	1
bin	106	2
bin	107	1
bin	108	1
bin	109	1
bin	110	1
bin	111	2
bin	112	1
bin	113	1
bin	114	126
scalar SimphonyDHTNetwork.members[23] 	#packetsInTheNetwork 	158
statistic SimphonyDHTNetwork.members[23] 	"packets statistics"
field count 199
field mean 77.879396984925
field stddev 46.55013076654
field sum 15498
field sqrsum 1636024
field min 0
field max 157
attr type  int
bin	-INF	0
bin	-39	0
bin	-38	0
bin	-37	0
bin	-36	0
bin	-35	0
bin	-34	0
bin	-33	0
bin	-32	0
bin	-31	0
bin	-30	0
bin	-29	0
bin	-28	0
bin	-27	0
bin	-26	0
bin	-25	0
bin	-24	0
bin	-23	0
bin	-22	0
bin	-21	0
bin	-20	0
bin	-19	0
bin	-18	0
bin	-17	0
bin	-16	0
bin	-15	0
bin	-14	0
bin	-13	0
bin	-12	0
bin	-11	0
bin	-10	0
bin	-9	0
bin	-8	0
bin	-7	0
bin	-6	0
bin	-5	0
bin	-4	0
bin	-3	0
bin	-2	0
bin	-1	0
bin	0	1
bin	1	2
bin	2	1
bin	3	1
bin	4	2
bin	5	1
bin	6	2
bin	7	2
bin	8	1
bin	9	2
bin	10	1
bin	11	1
bin	12	1
bin	13	2
bin	14	1
bin	15	1
bin	16	2
bin	17	1
bin	18	1
bin	19	2
bin	20	1
bin	21	1
bin	22	1
bin	23	2
bin	24	1
bin	25	1
bin	26	1
bin	27	1
bin	28	1
bin	29	2
bin	30	1
bin	31	1
bin	32	1
bin	33	1
bin	34	2
bin	35	2
bin	36	1
bin	37	2
bin	38	1
bin	39	1
bin	40	1
bin	41	2
bin	42	1
bin	43	1
bin	44	1
bin	45	1
bin	46	2
bin	47	0
bin	48	2
bin	49	2
bin	50	1
bin	51	1
bin	52	2
bin	53	1
bin	54	1
bin	55	2
bin	56	1
bin	57	1
bin	58	2
bin	59	1
bin	60	1
bin	61	1
bin	62	1
bin	63	1
bin	64	1
bin	65	1
bin	66	1
bin	67	1
bin	68	1
bin	69	1
bin	70	0
bin	71	2
bin	72	2
bin	73	1
bin	74	2
bin	75	1
bin	76	1
bin	77	1
bin	78	2
bin	79	1
bin	80	1
bin	81	1
bin	82	1
bin	83	1
bin	84	1
bin	85	1
bin	86	2
bin	87	1
bin	88	1
bin	89	1
bin	90	1
bin	91	2
bin	92	1
bin	93	1
bin	94	1
bin	95	1
bin	96	1
bin	97	1
bin	98	2
bin	99	2
bin	100	1
bin	101	2
bin	102	1
bin	103	1
bin	104	1
bin	105	1
bin	106	1
bin	107	2
bin	108	1
bin	109	1
bin	110	1
bin	111	1
bin	112	1
bin	113	2
bin	114	1
bin	115	1
bin	116	1
bin	117	53
scalar SimphonyDHTNetwork.members[24] 	#packetsInTheNetwork 	149
statistic SimphonyDHTNetwork.members[24] 	"packets statistics"
field count 189
field mean 75.174603174603
field stddev 43.419847781374
field sum 14208
field sqrsum 1422514
field min 0
field max 149
attr type  int
bin	-INF	0
bin	-40	0
bin	-39	0
bin	-38	0
bin	-37	0
bin	-36	0
bin	-35	0
bin	-34	0
bin	-33	0
bin	-32	0
bin	-31	0
bin	-30	0
bin	-29	0
bin	-28	0
bin	-27	0
bin	-26	0
bin	-25	0
bin	-24	0
bin	-23	0
bin	-22	0
bin	-21	0
bin	-20	0
bin	-19	0
bin	-18	0
bin	-17	0
bin	-16	0
bin	-15	0
bin	-14	0
bin	-13	0
bin	-12	0
bin	-11	0
bin	-10	0
bin	-9	0
bin	-8	0
bin	-7	0
bin	-6	0
bin	-5	0
bin	-4	0
bin	-3	0
bin	-2	0
bin	-1	0
bin	0	1
bin	1	2
bin	2	1
bin	3	1
bin	4	1
bin	5	1
bin	6	2
bin	7	1
bin	8	1
bin	9	1
bin	10	2
bin	11	1
bin	12	1
bin	13	1
bin	14	1
bin	15	1
bin	16	1
bin	17	2
bin	18	1
bin	19	1
bin	20	1
bin	21	2
bin	22	1
bin	23	1
bin	24	2
bin	25	1
bin	26	1
bin	27	1
bin	28	2
bin	29	1
bin	30	2
bin	31	2
bin	32	1
bin	33	1
bin	34	1
bin	35	1
bin	36	1
bin	37	1
bin	38	1
bin	39	2
bin	40	1
bin	41	1
bin	42	1
bin	43	1
bin	44	1
bin	45	1
bin	46	1
bin	47	2
bin	48	1
bin	49	1
bin	50	1
bin	51	2
bin	52	1
bin	53	1
bin	54	1
bin	55	1
bin	56	1
bin	57	1
bin	58	2
bin	59	1
bin	60	2
bin	61	1
bin	62	2
bin	63	1
bin	64	2
bin	65	1
bin	66	2
bin	67	2
bin	68	1
bin	69	1
bin	70	1
bin	71	1
bin	72	2
bin	73	1
bin	74	1
bin	75	1
bin	76	2
bin	77	1
bin	78	1
bin	79	1
bin	80	2
bin	81	1
bin	82	1
bin	83	1
bin	84	2
bin	85	1
bin	86	1
bin	87	1
bin	88	2
bin	89	1
bin	90	1
bin	91	1
bin	92	2
bin	93	1
bin	94	0
bin	95	2
bin	96	2
bin	97	1
bin	98	2
bin	99	1
bin	100	1
bin	101	1
bin	102	1
bin	103	1
bin	104	1
bin	105	1
bin	106	0
bin	107	2
bin	108	2
bin	109	1
bin	110	2
bin	111	1
bin	112	0
bin	113	2
bin	114	2
bin	115	1
bin	116	1
bin	117	2
bin	118	1
bin	119	40
scalar SimphonyDHTNetwork.members[25] 	#packetsInTheNetwork 	204
statistic SimphonyDHTNetwork.members[25] 	"packets statistics"
field count 258
field mean 101.42248062016
field stddev 59.032964134651
field sum 26167
field sqrsum 3549539
field min 0
field max 203
attr type  int
bin	-INF	0
bin	-39	0
bin	-38	0
bin	-37	0
bin	-36	0
bin	-35	0
bin	-34	0
bin	-33	0
bin	-32	0
bin	-31	0
bin	-30	0
bin	-29	0
bin	-28	0
bin	-27	0
bin	-26	0
bin	-25	0
bin	-24	0
bin	-23	0
bin	-22	0
bin	-21	0
bin	-20	0
bin	-19	0
bin	-18	0
bin	-17	0
bin	-16	0
bin	-15	0
bin	-14	0
bin	-13	0
bin	-12	0
bin	-11	0
bin	-10	0
bin	-9	0
bin	-8	0
bin	-7	0
bin	-6	0
bin	-5	0
bin	-4	0
bin	-3	0
bin	-2	0
bin	-1	0
bin	0	1
bin	1	2
bin	2	1
bin	3	1
bin	4	1
bin	5	1
bin	6	2
bin	7	1
bin	8	1
bin	9	1
bin	10	1
bin	11	2
bin	12	1
bin	13	1
bin	14	1
bin	15	1
bin	16	2
bin	17	2
bin	18	1
bin	19	2
bin	20	1
bin	21	1
bin	22	1
bin	23	2
bin	24	1
bin	25	1
bin	26	1
bin	27	2
bin	28	1
bin	29	1
bin	30	1
bin	31	2
bin	32	1
bin	33	1
bin	34	1
bin	35	2
bin	36	1
bin	37	1
bin	38	2
bin	39	1
bin	40	1
bin	41	1
bin	42	2
bin	43	1
bin	44	1
bin	45	1
bin	46	1
bin	47	1
bin	48	2
bin	49	1
bin	50	2
bin	51	1
bin	52	1
bin	53	1
bin	54	2
bin	55	1
bin	56	1
bin	57	1
bin	58	2
bin	59	1
bin	60	1
bin	61	1
bin	62	2
bin	63	1
bin	64	1
bin	65	1
bin	66	2
bin	67	1
bin	68	1
bin	69	1
bin	70	1
bin	71	2
bin	72	1
bin	73	1
bin	74	2
bin	75	1
bin	76	1
bin	77	2
bin	78	1
bin	79	1
bin	80	2
bin	81	1
bin	82	1
bin	83	2
bin	84	1
bin	85	1
bin	86	1
bin	87	2
bin	88	1
bin	89	1
bin	90	1
bin	91	2
bin	92	1
bin	93	1
bin	94	2
bin	95	1
bin	96	1
bin	97	1
bin	98	2
bin	99	1
bin	100	1
bin	101	2
bin	102	1
bin	103	1
bin	104	1
bin	105	2
bin	106	1
bin	107	1
bin	108	1
bin	109	1
bin	110	2
bin	111	2
bin	112	1
bin	113	2
bin	114	1
bin	115	1
bin	116	1
bin	117	109
scalar SimphonyDHTNetwork.members[26] 	#packetsInTheNetwork 	218
statistic SimphonyDHTNetwork.members[26] 	"packets statistics"
field count 275
field mean 107.90181818182
field stddev 63.537917557039
field sum 29673
field sqrsum 4307927
field min 0
field max 217
attr type  int
bin	-INF	0
bin	-39	0
bin	-38	0
bin	-37	0
bin	-36	0
bin	-35	0
bin	-34	0
bin	-33	0
bin	-32	0
bin	-31	0
bin	-30	0
bin	-29	0
bin	-28	0
bin	-27	0
bin	-26	0
bin	-25	0
bin	-24	0
bin	-23	0
bin	-22	0
bin	-21	0
bin	-20	0
bin	-19	0
bin	-18	0
bin	-17	0
bin	-16	0
bin	-15	0
bin	-14	0
bin	-13	0
bin	-12	0
bin	-11	0
bin	-10	0
bin	-9	0
bin	-8	0
bin	-7	0
bin	-6	0
bin	-5	0
bin	-4	0
bin	-3	0
bin	-2	0
bin	-1	0
bin	0	1
bin	1	1
bin	2	2
bin	3	1
bin	4	1
bin	5	1
bin	6	2
bin	7	1
bin	8	1
bin	9	2
bin	10	1
bin	11	1
bin	12	2
bin	13	1
bin	14	1
bin	15	1
bin	16	2
bin	17	1
bin	18	2
bin	19	1
bin	20	2
bin	21	2
bin	22	1
bin	23	2
bin	24	1
bin	25	1
bin	26	1
bin	27	1
bin	28	1
bin	29	1
bin	30	1
bin	31	2
bin	32	1
bin	33	1
bin	34	1
bin	35	2
bin	36	1
bin	37	1
bin	38	1
bin	39	2
bin	40	1
bin	41	2
bin	42	1
bin	43	2
bin	44	1
bin	45	2
bin	46	1
bin	47	2
bin	48	2
bin	49	1
bin	50	2
bin	51	1
bin	52	1
bin	53	1
bin	54	1
bin	55	2
bin	56	1
bin	57	1
bin	58	1
bin	59	1
bin	60	1
bin	61	1
bin	62	2
bin	63	1
bin	64	1
bin	65	1
bin	66	2
bin	67	1
bin	68	1
bin	69	1
bin	70	2
bin	71	1
bin	72	1
bin	73	1
bin	74	2
bin	75	1
bin	76	0
bin	77	2
bin	78	2
bin	79	1
bin	80	1
bin	81	1
bin	82	1
bin	83	1
bin	84	1
bin	85	1
bin	86	2
bin	87	1
bin	88	1
bin	89	1
bin	90	1
bin	91	2
bin	92	1
bin	93	1
bin	94	1
bin	95	1
bin	96	1
bin	97	2
bin	98	1
bin	99	1
bin	100	1
bin	101	1
bin	102	1
bin	103	2
bin	104	1
bin	105	1
bin	106	1
bin	107	1
bin	108	1
bin	109	1
bin	110	1
bin	111	1
bin	112	1
bin	113	1
bin	114	2
bin	115	1
bin	116	130
scalar SimphonyDHTNetwork.members[27] 	#packetsInTheNetwork 	268
statistic SimphonyDHTNetwork.members[27] 	"packets statistics"
field count 347
field mean 134.19884726225
field stddev 77.234035137616
field sum 46567
field sqrsum 8313161
field min 0
field max 267
attr type  int
bin	-INF	0
bin	-39	0
bin	-38	0
bin	-37	0
bin	-36	0
bin	-35	0
bin	-34	0
bin	-33	0
bin	-32	0
bin	-31	0
bin	-30	0
bin	-29	0
bin	-28	0
bin	-27	0
bin	-26	0
bin	-25	0
bin	-24	0
bin	-23	0
bin	-22	0
bin	-21	0
bin	-20	0
bin	-19	0
bin	-18	0
bin	-17	0
bin	-16	0
bin	-15	0
bin	-14	0
bin	-13	0
bin	-12	0
bin	-11	0
bin	-10	0
bin	-9	0
bin	-8	0
bin	-7	0
bin	-6	0
bin	-5	0
bin	-4	0
bin	-3	0
bin	-2	0
bin	-1	0
bin	0	1
bin	1	1
bin	2	1
bin	3	1
bin	4	1
bin	5	1
bin	6	2
bin	7	1
bin	8	1
bin	9	2
bin	10	1
bin	11	1
bin	12	2
bin	13	1
bin	14	1
bin	15	1
bin	16	2
bin	17	1
bin	18	1
bin	19	1
bin	20	2
bin	21	1
bin	22	1
bin	23	2
bin	24	1
bin	25	2
bin	26	1
bin	27	1
bin	28	2
bin	29	1
bin	30	1
bin	31	2
bin	32	1
bin	33	1
bin	34	1
bin	35	2
bin	36	1
bin	37	1
bin	38	1
bin	39	2
bin	40	1
bin	41	1
bin	42	1
bin	43	2
bin	44	1
bin	45	1
bin	46	2
bin	47	1
bin	48	1
bin	49	1
bin	50	1
bin	51	1
bin	52	2
bin	53	1
bin	54	2
bin	55	1
bin	56	1
bin	57	2
bin	58	1
bin	59	1
bin	60	2
bin	61	1
bin	62	1
bin	63	2
bin	64	1
bin	65	1
bin	66	1
bin	67	2
bin	68	1
bin	69	1
bin	70	1
bin	71	2
bin	72	1
bin	73	1
bin	74	2
bin	75	1
bin	76	1
bin	77	1
bin	78	2
bin	79	1
bin	80	1
bin	81	1
bin	82	1
bin	83	2
bin	84	2
bin	85	1
bin	86	2
bin	87	1
bin	88	1
bin	89	1
bin	90	2
bin	91	1
bin	92	1
bin	93	1
bin	94	2
bin	95	1
bin	96	1
bin	97	1
bin	98	1
bin	99	2
bin	100	2
bin	101	1
bin	102	2
bin	103	1
bin	104	1
bin	105	1
bin	106	1
bin	107	2
bin	108	1
bin	109	1
bin	110	2
bin	111	1
bin	112	2
bin	113	1
bin	114	1
bin	115	2
bin	116	1
bin	117	196
scalar SimphonyDHTNetwork.members[28] 	#packetsInTheNetwork 	236
statistic SimphonyDHTNetwork.members[28] 	"packets statistics"
field count 292
field mean 118.37671232877
field stddev 68.841881723181
field sum 34566
field sqrsum 5470918
field min 1
field max 235
attr type  int
bin	-INF	0
bin	-39	0
bin	-38	0
bin	-37	0
bin	-36	0
bin	-35	0
bin	-34	0
bin	-33	0
bin	-32	0
bin	-31	0
bin	-30	0
bin	-29	0
bin	-28	0
bin	-27	0
bin	-26	0
bin	-25	0
bin	-24	0
bin	-23	0
bin	-22	0
bin	-21	0
bin	-20	0
bin	-19	0
bin	-18	0
bin	-17	0
bin	-16	0
bin	-15	0
bin	-14	0
bin	-13	0
bin	-12	0
bin	-11	0
bin	-10	0
bin	-9	0
bin	-8	0
bin	-7	0
bin	-6	0
bin	-5	0
bin	-4	0
bin	-3	0
bin	-2	0
bin	-1	0
bin	0	0
bin	1	2
bin	2	2
bin	3	2
bin	4	1
bin	5	1
bin	6	2
bin	7	1
bin	8	1
bin	9	2
bin	10	1
bin	11	1
bin	12	1
bin	13	2
bin	14	1
bin	15	1
bin	16	1
bin	17	1
bin	18	1
bin	19	2
bin	20	1
bin	21	1
bin	22	1
bin	23	1
bin	24	2
bin	25	1
bin	26	1
bin	27	1
bin	28	1
bin	29	1
bin	30	1
bin	31	2
bin	32	1
bin	33	1
bin	34	1
bin	35	1
bin	36	1
bin	37	1
bin	38	1
bin	39	1
bin	40	1
bin	41	2
bin	42	1
bin	43	1
bin	44	1
bin	45	2
bin	46	1
bin	47	1
bin	48	2
bin	49	1
bin	50	0
bin	51	2
bin	52	2
bin	53	1
bin	54	2
bin	55	1
bin	56	1
bin	57	1
bin	58	1
bin	59	1
bin	60	2
bin	61	1
bin	62	1
bin	63	1
bin	64	1
bin	65	1
bin	66	1
bin	67	1
bin	68	1
bin	69	1
bin	70	2
bin	71	1
bin	72	1
bin	73	1
bin	74	2
bin	75	1
bin	76	1
bin	77	1
bin	78	2
bin	79	1
bin	80	2
bin	81	2
bin	82	1
bin	83	2
bin	84	1
bin	85	0
bin	86	2
bin	87	2
bin	88	1
bin	89	1
bin	90	1
bin	91	1
bin	92	1
bin	93	2
bin	94	1
bin	95	2
bin	96	1
bin	97	0
bin	98	2
bin	99	2
bin	100	1
bin	101	1
bin	102	1
bin	103	1
bin	104	1
bin	105	2
bin	106	1
bin	107	1
bin	108	1
bin	109	2
bin	110	1
bin	111	1
bin	112	1
bin	113	2
bin	114	1
bin	115	1
bin	116	1
bin	117	2
bin	118	1
bin	119	1
bin	120	1
bin	121	143
scalar SimphonyDHTNetwork.members[29] 	#packetsInTheNetwork 	321
statistic SimphonyDHTNetwork.members[29] 	"packets statistics"
field count 410
field mean 161.50731707317
field stddev 92.737219485328
field sum 66218
field sqrsum 14212170
field min 0
field max 321
attr type  int
bin	-INF	0
bin	-40	0
bin	-39	0
bin	-38	0
bin	-37	0
bin	-36	0
bin	-35	0
bin	-34	0
bin	-33	0
bin	-32	0
bin	-31	0
bin	-30	0
bin	-29	0
bin	-28	0
bin	-27	0
bin	-26	0
bin	-25	0
bin	-24	0
bin	-23	0
bin	-22	0
bin	-21	0
bin	-20	0
bin	-19	0
bin	-18	0
bin	-17	0
bin	-16	0
bin	-15	0
bin	-14	0
bin	-13	0
bin	-12	0
bin	-11	0
bin	-10	0
bin	-9	0
bin	-8	0
bin	-7	0
bin	-6	0
bin	-5	0
bin	-4	0
bin	-3	0
bin	-2	0
bin	-1	0
bin	0	1
bin	1	1
bin	2	2
bin	3	1
bin	4	1
bin	5	1
bin	6	1
bin	7	1
bin	8	1
bin	9	1
bin	10	2
bin	11	1
bin	12	1
bin	13	2
bin	14	1
bin	15	1
bin	16	2
bin	17	1
bin	18	1
bin	19	1
bin	20	1
bin	21	2
bin	22	1
bin	23	1
bin	24	1
bin	25	2
bin	26	1
bin	27	1
bin	28	1
bin	29	2
bin	30	1
bin	31	1
bin	32	2
bin	33	1
bin	34	1
bin	35	2
bin	36	1
bin	37	1
bin	38	1
bin	39	2
bin	40	1
bin	41	1
bin	42	1
bin	43	2
bin	44	1
bin	45	1
bin	46	2
bin	47	1
bin	48	1
bin	49	1
bin	50	1
bin	51	1
bin	52	1
bin	53	2
bin	54	1
bin	55	1
bin	56	2
bin	57	1
bin	58	1
bin	59	2
bin	60	0
bin	61	2
bin	62	2
bin	63	1
bin	64	2
bin	65	1
bin	66	1
bin	67	1
bin	68	2
bin	69	1
bin	70	1
bin	71	1
bin	72	2
bin	73	1
bin	74	1
bin	75	1
bin	76	1
bin	77	2
bin	78	1
bin	79	2
bin	80	1
bin	81	1
bin	82	1
bin	83	2
bin	84	1
bin	85	1
bin	86	2
bin	87	1
bin	88	1
bin	89	1
bin	90	2
bin	91	1
bin	92	1
bin	93	1
bin	94	2
bin	95	1
bin	96	1
bin	97	1
bin	98	2
bin	99	1
bin	100	2
bin	101	1
bin	102	1
bin	103	2
bin	104	1
bin	105	1
bin	106	2
bin	107	1
bin	108	1
bin	109	1
bin	110	2
bin	111	1
bin	112	1
bin	113	1
bin	114	1
bin	115	1
bin	116	1
bin	117	2
bin	118	1
bin	119	260
scalar SimphonyDHTNetwork.members[30] 	#packetsInTheNetwork 	244
statistic SimphonyDHTNetwork.members[30] 	"packets statistics"
field count 318
field mean 121.46540880503
field stddev 70.307551490007
field sum 38626
field sqrsum 6258702
field min 0
field max 243
attr type  int
bin	-INF	0
bin	-38	0
bin	-37	0
bin	-36	0
bin	-35	0
bin	-34	0
bin	-33	0
bin	-32	0
bin	-31	0
bin	-30	0
bin	-29	0
bin	-28	0
bin	-27	0
bin	-26	0
bin	-25	0
bin	-24	0
bin	-23	0
bin	-22	0
bin	-21	0
bin	-20	0
bin	-19	0
bin	-18	0
bin	-17	0
bin	-16	0
bin	-15	0
bin	-14	0
bin	-13	0
bin	-12	0
bin	-11	0
bin	-10	0
bin	-9	0
bin	-8	0
bin	-7	0
bin	-6	0
bin	-5	0
bin	-4	0
bin	-3	0
bin	-2	0
bin	-1	0
bin	0	1
bin	1	1
bin	2	1
bin	3	2
bin	4	1
bin	5	0
bin	6	2
bin	7	1
bin	8	2
bin	9	1
bin	10	2
bin	11	2
bin	12	1
bin	13	2
bin	14	1
bin	15	1
bin	16	1
bin	17	2
bin	18	1
bin	19	1
bin	20	1
bin	21	2
bin	22	1
bin	23	1
bin	24	1
bin	25	2
bin	26	1
bin	27	1
bin	28	2
bin	29	1
bin	30	1
bin	31	2
bin	32	1
bin	33	1
bin	34	2
bin	35	1
bin	36	1
bin	37	2
bin	38	1
bin	39	1
bin	40	1
bin	41	1
bin	42	2
bin	43	1
bin	44	1
bin	45	2
bin	46	1
bin	47	1
bin	48	1
bin	49	1
bin	50	2
bin	51	1
bin	52	1
bin	53	2
bin	54	1
bin	55	1
bin	56	2
bin	57	1
bin	58	1
bin	59	2
bin	60	1
bin	61	0
bin	62	2
bin	63	2
bin	64	1
bin	65	2
bin	66	1
bin	67	1
bin	68	1
bin	69	2
bin	70	1
bin	71	1
bin	72	2
bin	73	1
bin	74	1
bin	75	2
bin	76	1
bin	77	1
bin	78	2
bin	79	1
bin	80	1
bin	81	2
bin	82	1
bin	83	1
bin	84	2
bin	85	1
bin	86	1
bin	87	2
bin	88	1
bin	89	1
bin	90	1
bin	91	2
bin	92	1
bin	93	1
bin	94	2
bin	95	1
bin	96	1
bin	97	2
bin	98	1
bin	99	1
bin	100	2
bin	101	1
bin	102	1
bin	103	1
bin	104	2
bin	105	1
bin	106	1
bin	107	2
bin	108	1
bin	109	2
bin	110	1
bin	111	1
bin	112	1
bin	113	2
bin	114	169
scalar SimphonyDHTNetwork.members[31] 	#packetsInTheNetwork 	215
statistic SimphonyDHTNetwork.members[31] 	"packets statistics"
field count 284
field mean 106.80281690141
field stddev 62.26470784985
field sum 30332
field sqrsum 4336704
field min 0
field max 214
attr type  int
bin	-INF	0
bin	-37	0
bin	-36	0
bin	-35	0
bin	-34	0
bin	-33	0
bin	-32	0
bin	-31	0
bin	-30	0
bin	-29	0
bin	-28	0
bin	-27	0
bin	-26	0
bin	-25	0
bin	-24	0
bin	-23	0
bin	-22	0
bin	-21	0
bin	-20	0
bin	-19	0
bin	-18	0
bin	-17	0
bin	-16	0
bin	-15	0
bin	-14	0
bin	-13	0
bin	-12	0
bin	-11	0
bin	-10	0
bin	-9	0
bin	-8	0
bin	-7	0
bin	-6	0
bin	-5	0
bin	-4	0
bin	-3	0
bin	-2	0
bin	-1	0
bin	0	1
bin	1	1
bin	2	1
bin	3	1
bin	4	2
bin	5	1
bin	6	1
bin	7	2
bin	8	1
bin	9	1
bin	10	2
bin	11	1
bin	12	2
bin	13	2
bin	14	2
bin	15	1
bin	16	1
bin	17	1
bin	18	1
bin	19	2
bin	20	2
bin	21	1
bin	22	1
bin	23	2
bin	24	1
bin	25	1
bin	26	1
bin	27	2
bin	28	1
bin	29	1
bin	30	1
bin	31	2
bin	32	1
bin	33	1
bin	34	1
bin	35	2
bin	36	1
bin	37	1
bin	38	2
bin	39	1
bin	40	1
bin	41	1
bin	42	1
bin	43	2
bin	44	1
bin	45	1
bin	46	2
bin	47	1
bin	48	2
bin	49	1
bin	50	2
bin	51	1
bin	52	2
bin	53	1
bin	54	1
bin	55	1
bin	56	2
bin	57	2
bin	58	1
bin	59	1
bin	60	2
bin	61	1
bin	62	1
bin	63	2
bin	64	1
bin	65	2
bin	66	1
bin	67	1
bin	68	0
bin	69	2
bin	70	2
bin	71	1
bin	72	2
bin	73	1
bin	74	1
bin	75	1
bin	76	2
bin	77	1
bin	78	0
bin	79	2
bin	80	2
bin	81	1
bin	82	2
bin	83	1
bin	84	1
bin	85	1
bin	86	1
bin	87	2
bin	88	1
bin	89	2
bin	90	1
bin	91	1
bin	92	1
bin	93	2
bin	94	1
bin	95	1
bin	96	1
bin	97	2
bin	98	1
bin	99	1
bin	100	1
bin	101	1
bin	102	2
bin	103	1
bin	104	1
bin	105	1
bin	106	2
bin	107	1
bin	108	2
bin	109	1
bin	110	2
bin	111	137
scalar SimphonyDHTNetwork.members[32] 	#packetsInTheNetwork 	218
statistic SimphonyDHTNetwork.members[32] 	"packets statistics"
field count 282
field mean 107.73404255319
field stddev 62.965421601125
field sum 30381
field sqrsum 4387133
field min 0
field max 217
attr type  int
bin	-INF	0
bin	-38	0
bin	-37	0
bin	-36	0
bin	-35	0
bin	-34	0
bin	-33	0
bin	-32	0
bin	-31	0
bin	-30	0
bin	-29	0
bin	-28	0
bin	-27	0
bin	-26	0
bin	-25	0
bin	-24	0
bin	-23	0
bin	-22	0
bin	-21	0
bin	-20	0
bin	-19	0
bin	-18	0
bin	-17	0
bin	-16	0
bin	-15	0
bin	-14	0
bin	-13	0
bin	-12	0
bin	-11	0
bin	-10	0
bin	-9	0
bin	-8	0
bin	-7	0
bin	-6	0
bin	-5	0
bin	-4	0
bin	-3	0
bin	-2	0
bin	-1	0
bin	0	1
bin	1	1
bin	2	1
bin	3	1
bin	4	2
bin	5	1
bin	6	1
bin	7	2
bin	8	1
bin	9	1
bin	10	2
bin	11	1
bin	12	1
bin	13	1
bin	14	1
bin	15	2
bin	16	1
bin	17	2
bin	18	2
bin	19	2
bin	20	1
bin	21	1
bin	22	2
bin	23	1
bin	24	1
bin	25	2
bin	26	1
bin	27	1
bin	28	1
bin	29	2
bin	30	1
bin	31	1
bin	32	1
bin	33	2
bin	34	1
bin	35	1
bin	36	1
bin	37	2
bin	38	1
bin	39	1
bin	40	2
bin	41	1
bin	42	2
bin	43	1
bin	44	1
bin	45	2
bin	46	1
bin	47	1
bin	48	2
bin	49	1
bin	50	1
bin	51	1
bin	52	2
bin	53	1
bin	54	1
bin	55	2
bin	56	1
bin	57	1
bin	58	2
bin	59	1
bin	60	1
bin	61	1
bin	62	2
bin	63	1
bin	64	1
bin	65	2
bin	66	1
bin	67	1
bin	68	2
bin	69	1
bin	70	1
bin	71	1
bin	72	1
bin	73	2
bin	74	1
bin	75	1
bin	76	2
bin	77	1
bin	78	1
bin	79	1
bin	80	2
bin	81	1
bin	82	1
bin	83	2
bin	84	1
bin	85	1
bin	86	2
bin	87	1
bin	88	1
bin	89	1
bin	90	1
bin	91	2
bin	92	1
bin	93	1
bin	94	2
bin	95	1
bin	96	1
bin	97	2
bin	98	1
bin	99	1
bin	100	2
bin	101	1
bin	102	1
bin	103	1
bin	104	2
bin	105	1
bin	106	2
bin	107	1
bin	108	1
bin	109	2
bin	110	1
bin	111	2
bin	112	1
bin	113	2
bin	114	132
scalar SimphonyDHTNetwork.members[33] 	#packetsInTheNetwork 	194
statistic SimphonyDHTNetwork.members[33] 	"packets statistics"
field count 247
field mean 97.101214574899
field stddev 56.452817540623
field sum 23984
field sqrsum 3112858
field min 0
field max 193
attr type  int
bin	-INF	0
bin	-40	0
bin	-39	0
bin	-38	0
bin	-37	0
bin	-36	0
bin	-35	0
bin	-34	0
bin	-33	0
bin	-32	0
bin	-31	0
bin	-30	0
bin	-29	0
bin	-28	0
bin	-27	0
bin	-26	0
bin	-25	0
bin	-24	0
bin	-23	0
bin	-22	0
bin	-21	0
bin	-20	0
bin	-19	0
bin	-18	0
bin	-17	0
bin	-16	0
bin	-15	0
bin	-14	0
bin	-13	0
bin	-12	0
bin	-11	0
bin	-10	0
bin	-9	0
bin	-8	0
bin	-7	0
bin	-6	0
bin	-5	0
bin	-4	0
bin	-3	0
bin	-2	0
bin	-1	0
bin	0	1
bin	1	1
bin	2	1
bin	3	2
bin	4	2
bin	5	1
bin	6	2
bin	7	1
bin	8	1
bin	9	1
bin	10	1
bin	11	2
bin	12	1
bin	13	1
bin	14	2
bin	15	1
bin	16	1
bin	17	2
bin	18	1
bin	19	1
bin	20	2
bin	21	1
bin	22	1
bin	23	2
bin	24	1
bin	25	1
bin	26	2
bin	27	1
bin	28	1
bin	29	2
bin	30	1
bin	31	1
bin	32	2
bin	33	1
bin	34	1
bin	35	1
bin	36	1
bin	37	1
bin	38	1
bin	39	2
bin	40	1
bin	41	1
bin	42	1
bin	43	1
bin	44	2
bin	45	1
bin	46	1
bin	47	1
bin	48	1
bin	49	1
bin	50	1
bin	51	2
bin	52	1
bin	53	1
bin	54	1
bin	55	2
bin	56	1
bin	57	1
bin	58	1
bin	59	2
bin	60	1
bin	61	1
bin	62	1
bin	63	1
bin	64	1
bin	65	2
bin	66	1
bin	67	1
bin	68	2
bin	69	1
bin	70	1
bin	71	2
bin	72	1
bin	73	1
bin	74	1
bin	75	1
bin	76	1
bin	77	1
bin	78	1
bin	79	1
bin	80	2
bin	81	1
bin	82	2
bin	83	1
bin	84	1
bin	85	2
bin	86	1
bin	87	1
bin	88	1
bin	89	1
bin	90	1
bin	91	1
bin	92	2
bin	93	2
bin	94	1
bin	95	2
bin	96	1
bin	97	1
bin	98	1
bin	99	0
bin	100	2
bin	101	2
bin	102	1
bin	103	2
bin	104	1
bin	105	1
bin	106	1
bin	107	2
bin	108	1
bin	109	1
bin	110	2
bin	111	1
bin	112	1
bin	113	2
bin	114	1
bin	115	1
bin	116	1
bin	117	2
bin	118	1
bin	119	1
bin	120	96
scalar SimphonyDHTNetwork.members[34] 	#packetsInTheNetwork 	114
statistic SimphonyDHTNetwork.members[34] 	"packets statistics"
field count 145
field mean 56.131034482759
field stddev 33.259972433595
field sum 8139
field sqrsum 616147
field min 0
field max 113
attr type  int
bin	-INF	0
bin	-39	0
bin	-38	0
bin	-37	0
bin	-36	0
bin	-35	0
bin	-34	0
bin	-33	0
bin	-32	0
bin	-31	0
bin	-30	0
bin	-29	0
bin	-28	0
bin	-27	0
bin	-26	0
bin	-25	0
bin	-24	0
bin	-23	0
bin	-22	0
bin	-21	0
bin	-20	0
bin	-19	0
bin	-18	0
bin	-17	0
bin	-16	0
bin	-15	0
bin	-14	0
bin	-13	0
bin	-12	0
bin	-11	0
bin	-10	0
bin	-9	0
bin	-8	0
bin	-7	0
bin	-6	0
bin	-5	0
bin	-4	0
bin	-3	0
bin	-2	0
bin	-1	0
bin	0	1
bin	1	1
bin	2	2
bin	3	1
bin	4	2
bin	5	2
bin	6	1
bin	7	1
bin	8	2
bin	9	1
bin	10	2
bin	11	1
bin	12	1
bin	13	1
bin	14	1
bin	15	1
bin	16	1
bin	17	1
bin	18	1
bin	19	2
bin	20	1
bin	21	1
bin	22	1
bin	23	1
bin	24	1
bin	25	1
bin	26	2
bin	27	1
bin	28	2
bin	29	1
bin	30	2
bin	31	1
bin	32	2
bin	33	1
bin	34	2
bin	35	2
bin	36	1
bin	37	2
bin	38	1
bin	39	1
bin	40	1
bin	41	1
bin	42	1
bin	43	1
bin	44	2
bin	45	1
bin	46	1
bin	47	1
bin	48	2
bin	49	1
bin	50	1
bin	51	1
bin	52	2
bin	53	1
bin	54	1
bin	55	1
bin	56	2
bin	57	1
bin	58	1
bin	59	1
bin	60	2
bin	61	1
bin	62	1
bin	63	1
bin	64	1
bin	65	2
bin	66	1
bin	67	1
bin	68	1
bin	69	1
bin	70	2
bin	71	1
bin	72	1
bin	73	1
bin	74	1
bin	75	1
bin	76	2
bin	77	1
bin	78	1
bin	79	1
bin	80	2
bin	81	1
bin	82	1
bin	83	1
bin	84	2
bin	85	1
bin	86	0
bin	87	2
bin	88	2
bin	89	1
bin	90	2
bin	91	1
bin	92	1
bin	93	2
bin	94	1
bin	95	1
bin	96	1
bin	97	2
bin	98	1
bin	99	1
bin	100	0
bin	101	2
bin	102	1
bin	103	2
bin	104	2
bin	105	1
bin	106	2
bin	107	1
bin	108	1
bin	109	1
bin	110	2
bin	111	1
bin	112	1
bin	113	1
bin	114	0
bin	115	0
bin	116	0
bin	117	0
scalar SimphonyDHTNetwork.members[35] 	#packetsInTheNetwork 	151
statistic SimphonyDHTNetwork.members[35] 	"packets statistics"
field count 193
field mean 74.678756476684
field stddev 43.699857152081
field sum 14413
field sqrsum 1443003
field min 0
field max 150
attr type  int
bin	-INF	0
bin	-38	0
bin	-37	0
bin	-36	0
bin	-35	0
bin	-34	0
bin	-33	0
bin	-32	0
bin	-31	0
bin	-30	0
bin	-29	0
bin	-28	0
bin	-27	0
bin	-26	0
bin	-25	0
bin	-24	0
bin	-23	0
bin	-22	0
bin	-21	0
bin	-20	0
bin	-19	0
bin	-18	0
bin	-17	0
bin	-16	0
bin	-15	0
bin	-14	0
bin	-13	0
bin	-12	0
bin	-11	0
bin	-10	0
bin	-9	0
bin	-8	0
bin	-7	0
bin	-6	0
bin	-5	0
bin	-4	0
bin	-3	0
bin	-2	0
bin	-1	0
bin	0	1
bin	1	1
bin	2	2
bin	3	1
bin	4	0
bin	5	2
bin	6	2
bin	7	1
bin	8	1
bin	9	1
bin	10	2
bin	11	1
bin	12	1
bin	13	2
bin	14	1
bin	15	1
bin	16	1
bin	17	1
bin	18	2
bin	19	2
bin	20	1
bin	21	2
bin	22	1
bin	23	1
bin	24	1
bin	25	2
bin	26	1
bin	27	1
bin	28	1
bin	29	2
bin	30	1
bin	31	1
bin	32	1
bin	33	2
bin	34	1
bin	35	1
bin	36	1
bin	37	1
bin	38	2
bin	39	2
bin	40	1
bin	41	2
bin	42	1
bin	43	1
bin	44	1
bin	45	2
bin	46	1
bin	47	1
bin	48	1
bin	49	1
bin	50	2
bin	51	1
bin	52	1
bin	53	1
bin	54	2
bin	55	1
bin	56	1
bin	57	2
bin	58	1
bin	59	0
bin	60	2
bin	61	1
bin	62	2
bin	63	2
bin	64	1
bin	65	2
bin	66	1
bin	67	1
bin	68	1
bin	69	2
bin	70	1
bin	71	1
bin	72	1
bin	73	2
bin	74	1
bin	75	1
bin	76	2
bin	77	1
bin	78	1
bin	79	1
bin	80	2
bin	81	1
bin	82	0
bin	83	2
bin	84	2
bin	85	1
bin	86	2
bin	87	1
bin	88	1
bin	89	1
bin	90	1
bin	91	2
bin	92	2
bin	93	1
bin	94	2
bin	95	1
bin	96	1
bin	97	1
bin	98	1
bin	99	2
bin	100	1
bin	101	1
bin	102	1
bin	103	2
bin	104	1
bin	105	1
bin	106	1
bin	107	2
bin	108	1
bin	109	1
bin	110	1
bin	111	1
bin	112	1
bin	113	1
bin	114	47
scalar SimphonyDHTNetwork.members[36] 	#packetsInTheNetwork 	237
statistic SimphonyDHTNetwork.members[36] 	"packets statistics"
field count 302
field mean 118.53311258278
field stddev 68.275851683959
field sum 35797
field sqrsum 5646269
field min 0
field max 236
attr type  int
bin	-INF	0
bin	-39	0
bin	-38	0
bin	-37	0
bin	-36	0
bin	-35	0
bin	-34	0
bin	-33	0
bin	-32	0
bin	-31	0
bin	-30	0
bin	-29	0
bin	-28	0
bin	-27	0
bin	-26	0
bin	-25	0
bin	-24	0
bin	-23	0
bin	-22	0
bin	-21	0
bin	-20	0
bin	-19	0
bin	-18	0
bin	-17	0
bin	-16	0
bin	-15	0
bin	-14	0
bin	-13	0
bin	-12	0
bin	-11	0
bin	-10	0
bin	-9	0
bin	-8	0
bin	-7	0
bin	-6	0
bin	-5	0
bin	-4	0
bin	-3	0
bin	-2	0
bin	-1	0
bin	0	1
bin	1	1
bin	2	2
bin	3	1
bin	4	1
bin	5	1
bin	6	1
bin	7	1
bin	8	2
bin	9	1
bin	10	1
bin	11	2
bin	12	1
bin	13	1
bin	14	2
bin	15	1
bin	16	1
bin	17	1
bin	18	1
bin	19	1
bin	20	1
bin	21	1
bin	22	1
bin	23	2
bin	24	1
bin	25	2
bin	26	2
bin	27	1
bin	28	1
bin	29	2
bin	30	1
bin	31	1
bin	32	1
bin	33	2
bin	34	1
bin	35	1
bin	36	2
bin	37	1
bin	38	1
bin	39	1
bin	40	2
bin	41	1
bin	42	1
bin	43	2
bin	44	1
bin	45	1
bin	46	2
bin	47	1
bin	48	1
bin	49	2
bin	50	1
bin	51	1
bin	52	0
bin	53	2
bin	54	2
bin	55	1
bin	56	1
bin	57	1
bin	58	2
bin	59	1
bin	60	1
bin	61	1
bin	62	2
bin	63	1
bin	64	1
bin	65	1
bin	66	1
bin	67	1
bin	68	1
bin	69	2
bin	70	1
bin	71	1
bin	72	2
bin	73	1
bin	74	1
bin	75	2
bin	76	1
bin	77	1
bin	78	2
bin	79	1
bin	80	1
bin	81	2
bin	82	1
bin	83	1
bin	84	1
bin	85	1
bin	86	2
bin	87	1
bin	88	1
bin	89	2
bin	90	1
bin	91	1
bin	92	1
bin	93	2
bin	94	1
bin	95	1
bin	96	1
bin	97	1
bin	98	1
bin	99	2
bin	100	1
bin	101	1
bin	102	1
bin	103	2
bin	104	1
bin	105	1
bin	106	1
bin	107	2
bin	108	1
bin	109	1
bin	110	2
bin	111	1
bin	112	1
bin	113	1
bin	114	1
bin	115	2
bin	116	2
bin	117	154
scalar SimphonyDHTNetwork.members[37] 	#packetsInTheNetwork 	185
statistic SimphonyDHTNetwork.members[37] 	"packets statistics"
field count 242
field mean 92.925619834711
field stddev 53.682819104827
field sum 22488
field sqrsum 2784236
field min 0
field max 185
attr type  int
bin	-INF	0
bin	-38	0
bin	-37	0
bin	-36	0
bin	-35	0
bin	-34	0
bin	-33	0
bin	-32	0
bin	-31	0
bin	-30	0
bin	-29	0
bin	-28	0
bin	-27	0
bin	-26	0
bin	-25	0
bin	-24	0
bin	-23	0
bin	-22	0
bin	-21	0
bin	-20	0
bin	-19	0
bin	-18	0
bin	-17	0
bin	-16	0
bin	-15	0
bin	-14	0
bin	-13	0
bin	-12	0
bin	-11	0
bin	-10	0
bin	-9	0
bin	-8	0
bin	-7	0
bin	-6	0
bin	-5	0
bin	-4	0
bin	-3	0
bin	-2	0
bin	-1	0
bin	0	1
bin	1	1
bin	2	2
bin	3	1
bin	4	1
bin	5	1
bin	6	1
bin	7	1
bin	8	1
bin	9	2
bin	10	1
bin	11	2
bin	12	1
bin	13	1
bin	14	2
bin	15	1
bin	16	1
bin	17	1
bin	18	1
bin	19	2
bin	20	1
bin	21	1
bin	22	1
bin	23	2
bin	24	2
bin	25	1
bin	26	2
bin	27	1
bin	28	1
bin	29	1
bin	30	2
bin	31	1
bin	32	1
bin	33	1
bin	34	2
bin	35	1
bin	36	1
bin	37	2
bin	38	1
bin	39	1
bin	40	1
bin	41	2
bin	42	1
bin	43	1
bin	44	2
bin	45	1
bin	46	0
bin	47	2
bin	48	2
bin	49	1
bin	50	2
bin	51	1
bin	52	1
bin	53	1
bin	54	2
bin	55	1
bin	56	2
bin	57	1
bin	58	1
bin	59	1
bin	60	2
bin	61	1
bin	62	1
bin	63	1
bin	64	2
bin	65	1
bin	66	1
bin	67	2
bin	68	1
bin	69	1
bin	70	2
bin	71	1
bin	72	1
bin	73	2
bin	74	1
bin	75	1
bin	76	2
bin	77	1
bin	78	2
bin	79	1
bin	80	1
bin	81	1
bin	82	1
bin	83	2
bin	84	1
bin	85	2
bin	86	1
bin	87	1
bin	88	1
bin	89	2
bin	90	1
bin	91	0
bin	92	2
bin	93	2
bin	94	1
bin	95	2
bin	96	1
bin	97	1
bin	98	2
bin	99	1
bin	100	1
bin	101	1
bin	102	2
bin	103	1
bin	104	1
bin	105	1
bin	106	2
bin	107	1
bin	108	1
bin	109	1
bin	110	2
bin	111	1
bin	112	2
bin	113	2
bin	114	93
scalar SimphonyDHTNetwork.members[38] 	#packetsInTheNetwork 	202
statistic SimphonyDHTNetwork.members[38] 	"packets statistics"
field count 250
field mean 100.88
field stddev 58.993376525637
field sum 25220
field sqrsum 3410768
field min 0
field max 201
attr type  int
bin	-INF	0
bin	-40	0
bin	-39	0
bin	-38	0
bin	-37	0
bin	-36	0
bin	-35	0
bin	-34	0
bin	-33	0
bin	-32	0
bin	-31	0
bin	-30	0
bin	-29	0
bin	-28	0
bin	-27	0
bin	-26	0
bin	-25	0
bin	-24	0
bin	-23	0
bin	-22	0
bin	-21	0
bin	-20	0
bin	-19	0
bin	-18	0
bin	-17	0
bin	-16	0
bin	-15	0
bin	-14	0
bin	-13	0
bin	-12	0
bin	-11	0
bin	-10	0
bin	-9	0
bin	-8	0
bin	-7	0
bin	-6	0
bin	-5	0
bin	-4	0
bin	-3	0
bin	-2	0
bin	-1	0
bin	0	1
bin	1	2
bin	2	1
bin	3	1
bin	4	2
bin	5	1
bin	6	1
bin	7	2
bin	8	1
bin	9	1
bin	10	2
bin	11	1
bin	12	1
bin	13	1
bin	14	2
bin	15	1
bin	16	1
bin	17	1
bin	18	1
bin	19	1
bin	20	2
bin	21	1
bin	22	1
bin	23	2
bin	24	1
bin	25	1
bin	26	1
bin	27	2
bin	28	1
bin	29	2
bin	30	2
bin	31	1
bin	32	1
bin	33	1
bin	34	1
bin	35	1
bin	36	1
bin	37	1
bin	38	1
bin	39	1
bin	40	1
bin	41	1
bin	42	2
bin	43	1
bin	44	1
bin	45	2
bin	46	1
bin	47	1
bin	48	2
bin	49	1
bin	50	1
bin	51	1
bin	52	2
bin	53	1
bin	54	1
bin	55	1
bin	56	1
bin	57	2
bin	58	1
bin	59	1
bin	60	1
bin	61	1
bin	62	1
bin	63	2
bin	64	1
bin	65	1
bin	66	1
bin	67	1
bin	68	1
bin	69	1
bin	70	1
bin	71	2
bin	72	1
bin	73	1
bin	74	1
bin	75	1
bin	76	2
bin	77	1
bin	78	1
bin	79	1
bin	80	2
bin	81	1
bin	82	1
bin	83	1
bin	84	1
bin	85	2
bin	86	1
bin	87	1
bin	88	1
bin	89	1
bin	90	1
bin	91	1
bin	92	2
bin	93	1
bin	94	1
bin	95	1
bin	96	2
bin	97	1
bin	98	1
bin	99	1
bin	100	2
bin	101	1
bin	102	1
bin	103	1
bin	104	1
bin	105	2
bin	106	1
bin	107	1
bin	108	1
bin	109	2
bin	110	1
bin	111	1
bin	112	1
bin	113	2
bin	114	1
bin	115	1
bin	116	1
bin	117	2
bin	118	1
bin	119	1
bin	120	103
scalar SimphonyDHTNetwork.members[39] 	#packetsInTheNetwork 	254
statistic SimphonyDHTNetwork.members[39] 	"packets statistics"
field count 329
field mean 126.39209726444
field stddev 73.3780392534
field sum 41583
field sqrsum 7021825
field min 0
field max 253
attr type  int
bin	-INF	0
bin	-38	0
bin	-37	0
bin	-36	0
bin	-35	0
bin	-34	0
bin	-33	0
bin	-32	0
bin	-31	0
bin	-30	0
bin	-29	0
bin	-28	0
bin	-27	0
bin	-26	0
bin	-25	0
bin	-24	0
bin	-23	0
bin	-22	0
bin	-21	0
bin	-20	0
bin	-19	0
bin	-18	0
bin	-17	0
bin	-16	0
bin	-15	0
bin	-14	0
bin	-13	0
bin	-12	0
bin	-11	0
bin	-10	0
bin	-9	0
bin	-8	0
bin	-7	0
bin	-6	0
bin	-5	0
bin	-4	0
bin	-3	0
bin	-2	0
bin	-1	0
bin	0	1
bin	1	1
bin	2	2
bin	3	1
bin	4	1
bin	5	1
bin	6	2
bin	7	1
bin	8	0
bin	9	2
bin	10	2
bin	11	2
bin	12	1
bin	13	1
bin	14	1
bin	15	1
bin	16	1
bin	17	1
bin	18	2
bin	19	1
bin	20	1
bin	21	1
bin	22	1
bin	23	2
bin	24	2
bin	25	1
bin	26	2
bin	27	1
bin	28	1
bin	29	1
bin	30	2
bin	31	1
bin	32	1
bin	33	1
bin	34	2
bin	35	1
bin	36	1
bin	37	2
bin	38	1
bin	39	1
bin	40	2
bin	41	1
bin	42	1
bin	43	2
bin	44	1
bin	45	1
bin	46	2
bin	47	1
bin	48	1
bin	49	2
bin	50	1
bin	51	1
bin	52	1
bin	53	2
bin	54	1
bin	55	1
bin	56	2
bin	57	1
bin	58	1
bin	59	1
bin	60	2
bin	61	1
bin	62	1
bin	63	2
bin	64	1
bin	65	1
bin	66	2
bin	67	1
bin	68	1
bin	69	2
bin	70	1
bin	71	0
bin	72	2
bin	73	2
bin	74	2
bin	75	1
bin	76	1
bin	77	2
bin	78	1
bin	79	2
bin	80	1
bin	81	1
bin	82	2
bin	83	1
bin	84	1
bin	85	1
bin	86	2
bin	87	1
bin	88	1
bin	89	2
bin	90	1
bin	91	1
bin	92	2
bin	93	1
bin	94	1
bin	95	2
bin	96	1
bin	97	1
bin	98	2
bin	99	1
bin	100	1
bin	101	2
bin	102	1
bin	103	1
bin	104	1
bin	105	2
bin	106	1
bin	107	1
bin	108	1
bin	109	1
bin	110	2
bin	111	1
bin	112	1
bin	113	1
bin	114	181
scalar SimphonyDHTNetwork.members[40] 	#packetsInTheNetwork 	232
statistic SimphonyDHTNetwork.members[40] 	"packets statistics"
field count 302
field mean 115.99006622517
field stddev 67.122562817567
field sum 35029
field sqrsum 5419153
field min 0
field max 231
attr type  int
bin	-INF	0
bin	-38	0
bin	-37	0
bin	-36	0
bin	-35	0
bin	-34	0
bin	-33	0
bin	-32	0
bin	-31	0
bin	-30	0
bin	-29	0
bin	-28	0
bin	-27	0
bin	-26	0
bin	-25	0
bin	-24	0
bin	-23	0
bin	-22	0
bin	-21	0
bin	-20	0
bin	-19	0
bin	-18	0
bin	-17	0
bin	-16	0
bin	-15	0
bin	-14	0
bin	-13	0
bin	-12	0
bin	-11	0
bin	-10	0
bin	-9	0
bin	-8	0
bin	-7	0
bin	-6	0
bin	-5	0
bin	-4	0
bin	-3	0
bin	-2	0
bin	-1	0
bin	0	1
bin	1	1
bin	2	2
bin	3	1
bin	4	1
bin	5	1
bin	6	1
bin	7	1
bin	8	2
bin	9	1
bin	10	1
bin	11	1
bin	12	2
bin	13	1
bin	14	1
bin	15	2
bin	16	1
bin	17	1
bin	18	2
bin	19	1
bin	20	1
bin	21	1
bin	22	2
bin	23	1
bin	24	1
bin	25	1
bin	26	2
bin	27	1
bin	28	2
bin	29	2
bin	30	2
bin	31	1
bin	32	1
bin	33	1
bin	34	2
bin	35	1
bin	36	1
bin	37	2
bin	38	1
bin	39	1
bin	40	2
bin	41	1
bin	42	1
bin	43	1
bin	44	2
bin	45	1
bin	46	1
bin	47	1
bin	48	2
bin	49	1
bin	50	1
bin	51	2
bin	52	1
bin	53	2
bin	54	1
bin	55	1
bin	56	1
bin	57	2
bin	58	1
bin	59	1
bin	60	1
bin	61	1
bin	62	2
bin	63	1
bin	64	2
bin	65	1
bin	66	1
bin	67	1
bin	68	1
bin	69	1
bin	70	1
bin	71	1
bin	72	2
bin	73	2
bin	74	1
bin	75	2
bin	76	1
bin	77	1
bin	78	1
bin	79	2
bin	80	1
bin	81	1
bin	82	1
bin	83	2
bin	84	1
bin	85	1
bin	86	1
bin	87	2
bin	88	1
bin	89	1
bin	90	2
bin	91	1
bin	92	1
bin	93	1
bin	94	1
bin	95	1
bin	96	2
bin	97	2
bin	98	1
bin	99	2
bin	100	1
bin	101	1
bin	102	1
bin	103	2
bin	104	1
bin	105	1
bin	106	1
bin	107	2
bin	108	1
bin	109	1
bin	110	2
bin	111	1
bin	112	0
bin	113	2
bin	114	155
scalar SimphonyDHTNetwork.members[41] 	#packetsInTheNetwork 	128
statistic SimphonyDHTNetwork.members[41] 	"packets statistics"
field count 157
field mean 62.828025477707
field stddev 36.175529756004
field sum 9864
field sqrsum 823888
field min 0
field max 127
attr type  int
bin	-INF	0
bin	-40	0
bin	-39	0
bin	-38	0
bin	-37	0
bin	-36	0
bin	-35	0
bin	-34	0
bin	-33	0
bin	-32	0
bin	-31	0
bin	-30	0
bin	-29	0
bin	-28	0
bin	-27	0
bin	-26	0
bin	-25	0
bin	-24	0
bin	-23	0
bin	-22	0
bin	-21	0
bin	-20	0
bin	-19	0
bin	-18	0
bin	-17	0
bin	-16	0
bin	-15	0
bin	-14	0
bin	-13	0
bin	-12	0
bin	-11	0
bin	-10	0
bin	-9	0
bin	-8	0
bin	-7	0
bin	-6	0
bin	-5	0
bin	-4	0
bin	-3	0
bin	-2	0
bin	-1	0
bin	0	1
bin	1	1
bin	2	1
bin	3	2
bin	4	1
bin	5	1
bin	6	1
bin	7	2
bin	8	1
bin	9	1
bin	10	2
bin	11	1
bin	12	1
bin	13	1
bin	14	2
bin	15	1
bin	16	1
bin	17	1
bin	18	2
bin	19	1
bin	20	1
bin	21	2
bin	22	1
bin	23	1
bin	24	1
bin	25	1
bin	26	1
bin	27	1
bin	28	1
bin	29	1
bin	30	1
bin	31	1
bin	32	1
bin	33	2
bin	34	1
bin	35	1
bin	36	1
bin	37	2
bin	38	1
bin	39	1
bin	40	2
bin	41	1
bin	42	1
bin	43	1
bin	44	2
bin	45	1
bin	46	1
bin	47	1
bin	48	1
bin	49	2
bin	50	1
bin	51	1
bin	52	1
bin	53	1
bin	54	0
bin	55	2
bin	56	2
bin	57	1
bin	58	2
bin	59	1
bin	60	1
bin	61	2
bin	62	1
bin	63	1
bin	64	2
bin	65	1
bin	66	1
bin	67	2
bin	68	1
bin	69	1
bin	70	2
bin	71	1
bin	72	2
bin	73	2
bin	74	1
bin	75	1
bin	76	0
bin	77	2
bin	78	2
bin	79	1
bin	80	2
bin	81	1
bin	82	1
bin	83	2
bin	84	1
bin	85	1
bin	86	1
bin	87	1
bin	88	2
bin	89	1
bin	90	1
bin	91	1
bin	92	1
bin	93	1
bin	94	2
bin	95	2
bin	96	1
bin	97	2
bin	98	1
bin	99	1
bin	100	1
bin	101	2
bin	102	1
bin	103	1
bin	104	1
bin	105	0
bin	106	2
bin	107	2
bin	108	1
bin	109	1
bin	110	0
bin	111	2
bin	112	2
bin	113	1
bin	114	1
bin	115	1
bin	116	1
bin	117	1
bin	118	1
bin	119	9
scalar SimphonyDHTNetwork.members[42] 	#packetsInTheNetwork 	206
statistic SimphonyDHTNetwork.members[42] 	"packets statistics"
field count 268
field mean 102.60447761194
field stddev 58.992606488655
field sum 27498
field sqrsum 3750612
field min 0
field max 205
attr type  int
bin	-INF	0
bin	-39	0
bin	-38	0
bin	-37	0
bin	-36	0
bin	-35	0
bin	-34	0
bin	-33	0
bin	-32	0
bin	-31	0
bin	-30	0
bin	-29	0
bin	-28	0
bin	-27	0
bin	-26	0
bin	-25	0
bin	-24	0
bin	-23	0
bin	-22	0
bin	-21	0
bin	-20	0
bin	-19	0
bin	-18	0
bin	-17	0
bin	-16	0
bin	-15	0
bin	-14	0
bin	-13	0
bin	-12	0
bin	-11	0
bin	-10	0
bin	-9	0
bin	-8	0
bin	-7	0
bin	-6	0
bin	-5	0
bin	-4	0
bin	-3	0
bin	-2	0
bin	-1	0
bin	0	1
bin	1	1
bin	2	1
bin	3	2
bin	4	1
bin	5	1
bin	6	2
bin	7	1
bin	8	1
bin	9	2
bin	10	1
bin	11	1
bin	12	1
bin	13	2
bin	14	1
bin	15	1
bin	16	1
bin	17	1
bin	18	2
bin	19	1
bin	20	1
bin	21	1
bin	22	1
bin	23	2
bin	24	2
bin	25	1
bin	26	2
bin	27	1
bin	28	1
bin	29	1
bin	30	2
bin	31	1
bin	32	1
bin	33	1
bin	34	2
bin	35	1
bin	36	1
bin	37	2
bin	38	1
bin	39	2
bin	40	1
bin	41	1
bin	42	2
bin	43	1
bin	44	1
bin	45	2
bin	46	1
bin	47	1
bin	48	1
bin	49	2
bin	50	1
bin	51	1
bin	52	1
bin	53	2
bin	54	1
bin	55	1
bin	56	1
bin	57	2
bin	58	1
bin	59	1
bin	60	1
bin	61	2
bin	62	1
bin	63	1
bin	64	1
bin	65	2
bin	66	1
bin	67	1
bin	68	1
bin	69	1
bin	70	2
bin	71	2
bin	72	1
bin	73	2
bin	74	1
bin	75	1
bin	76	1
bin	77	2
bin	78	1
bin	79	1
bin	80	1
bin	81	1
bin	82	2
bin	83	1
bin	84	1
bin	85	2
bin	86	1
bin	87	1
bin	88	2
bin	89	1
bin	90	1
bin	91	2
bin	92	1
bin	93	1
bin	94	1
bin	95	2
bin	96	1
bin	97	1
bin	98	2
bin	99	1
bin	100	1
bin	101	1
bin	102	1
bin	103	2
bin	104	1
bin	105	1
bin	106	1
bin	107	2
bin	108	1
bin	109	1
bin	110	2
bin	111	1
bin	112	2
bin	113	2
bin	114	2
bin	115	1
bin	116	117
scalar SimphonyDHTNetwork.members[43] 	#packetsInTheNetwork 	158
statistic SimphonyDHTNetwork.members[43] 	"packets statistics"
field count 204
field mean 77.485294117647
field stddev 45.656079717646
field sum 15807
field sqrsum 1647959
field min 0
field max 157
attr type  int
bin	-INF	0
bin	-37	0
bin	-36	0
bin	-35	0
bin	-34	0
bin	-33	0
bin	-32	0
bin	-31	0
bin	-30	0
bin	-29	0
bin	-28	0
bin	-27	0
bin	-26	0
bin	-25	0
bin	-24	0
bin	-23	0
bin	-22	0
bin	-21	0
bin	-20	0
bin	-19	0
bin	-18	0
bin	-17	0
bin	-16	0
bin	-15	0
bin	-14	0
bin	-13	0
bin	-12	0
bin	-11	0
bin	-10	0
bin	-9	0
bin	-8	0
bin	-7	0
bin	-6	0
bin	-5	0
bin	-4	0
bin	-3	0
bin	-2	0
bin	-1	0
bin	0	1
bin	1	1
bin	2	2
bin	3	1
bin	4	1
bin	5	2
bin	6	1
bin	7	1
bin	8	1
bin	9	2
bin	10	1
bin	11	1
bin	12	2
bin	13	1
bin	14	1
bin	15	1
bin	16	2
bin	17	1
bin	18	1
bin	19	2
bin	20	1
bin	21	1
bin	22	2
bin	23	1
bin	24	2
bin	25	2
bin	26	2
bin	27	1
bin	28	1
bin	29	1
bin	30	1
bin	31	2
bin	32	1
bin	33	1
bin	34	1
bin	35	1
bin	36	2
bin	37	2
bin	38	1
bin	39	2
bin	40	1
bin	41	1
bin	42	1
bin	43	2
bin	44	1
bin	45	1
bin	46	1
bin	47	1
bin	48	2
bin	49	1
bin	50	1
bin	51	2
bin	52	1
bin	53	1
bin	54	2
bin	55	1
bin	56	1
bin	57	1
bin	58	2
bin	59	1
bin	60	1
bin	61	1
bin	62	2
bin	63	1
bin	64	2
bin	65	1
bin	66	2
bin	67	1
bin	68	2
bin	69	1
bin	70	2
bin	71	2
bin	72	1
bin	73	2
bin	74	1
bin	75	1
bin	76	1
bin	77	2
bin	78	1
bin	79	1
bin	80	1
bin	81	1
bin	82	2
bin	83	1
bin	84	1
bin	85	1
bin	86	2
bin	87	1
bin	88	1
bin	89	1
bin	90	2
bin	91	1
bin	92	1
bin	93	1
bin	94	1
bin	95	1
bin	96	1
bin	97	2
bin	98	1
bin	99	1
bin	100	1
bin	101	1
bin	102	1
bin	103	1
bin	104	1
bin	105	1
bin	106	1
bin	107	1
bin	108	2
bin	109	1
bin	110	62
scalar SimphonyDHTNetwork.members[44] 	#packetsInTheNetwork 	156
statistic SimphonyDHTNetwork.members[44] 	"packets statistics"
field count 204
field mean 76.656862745098
field stddev 45.166467159015
field sum 15638
field sqrsum 1612882
field min 0
field max 155
attr type  int
bin	-INF	0
bin	-38	0
bin	-37	0
bin	-36	0
bin	-35	0
bin	-34	0
bin	-33	0
bin	-32	0
bin	-31	0
bin	-30	0
bin	-29	0
bin	-28	0
bin	-27	0
bin	-26	0
bin	-25	0
bin	-24	0
bin	-23	0
bin	-22	0
bin	-21	0
bin	-20	0
bin	-19	0
bin	-18	0
bin	-17	0
bin	-16	0
bin	-15	0
bin	-14	0
bin	-13	0
bin	-12	0
bin	-11	0
bin	-10	0
bin	-9	0
bin	-8	0
bin	-7	0
bin	-6	0
bin	-5	0
bin	-4	0
bin	-3	0
bin	-2	0
bin	-1	0
bin	0	1
bin	1	2
bin	2	1
bin	3	1
bin	4	2
bin	5	1
bin	6	1
bin	7	2
bin	8	1
bin	9	0
bin	10	2
bin	11	1
bin	12	2
bin	13	2
bin	14	1
bin	15	2
bin	16	1
bin	17	2
bin	18	2
bin	19	1
bin	20	1
bin	21	2
bin	22	1
bin	23	1
bin	24	1
bin	25	1
bin	26	2
bin	27	2
bin	28	1
bin	29	2
bin	30	1
bin	31	1
bin	32	1
bin	33	2
bin	34	1
bin	35	1
bin	36	0
bin	37	2
bin	38	2
bin	39	1
bin	40	1
bin	41	2
bin	42	1
bin	43	1
bin	44	1
bin	45	2
bin	46	1
bin	47	1
bin	48	2
bin	49	1
bin	50	1
bin	51	1
bin	52	2
bin	53	1
bin	54	1
bin	55	2
bin	56	1
bin	57	1
bin	58	1
bin	59	2
bin	60	1
bin	61	1
bin	62	1
bin	63	2
bin	64	1
bin	65	1
bin	66	1
bin	67	2
bin	68	1
bin	69	0
bin	70	2
bin	71	2
bin	72	1
bin	73	2
bin	74	1
bin	75	2
bin	76	1
bin	77	1
bin	78	1
bin	79	1
bin	80	1
bin	81	2
bin	82	1
bin	83	1
bin	84	2
bin	85	1
bin	86	2
bin	87	1
bin	88	1
bin	89	1
bin	90	2
bin	91	1
bin	92	2
bin	93	1
bin	94	1
bin	95	1
bin	96	2
bin	97	1
bin	98	2
bin	99	2
bin	100	1
bin	101	1
bin	102	2
bin	103	1
bin	104	1
bin	105	1
bin	106	1
bin	107	2
bin	108	2
bin	109	1
bin	110	2
bin	111	1
bin	112	1
bin	113	54
scalar SimphonyDHTNetwork.members[45] 	#packetsInTheNetwork 	137
statistic SimphonyDHTNetwork.members[45] 	"packets statistics"
field count 168
field mean 68.22619047619
field stddev 39.860640827727
field sum 11462
field sqrsum 1047350
field min 0
field max 136
attr type  int
bin	-INF	0
bin	-41	0
bin	-40	0
bin	-39	0
bin	-38	0
bin	-37	0
bin	-36	0
bin	-35	0
bin	-34	0
bin	-33	0
bin	-32	0
bin	-31	0
bin	-30	0
bin	-29	0
bin	-28	0
bin	-27	0
bin	-26	0
bin	-25	0
bin	-24	0
bin	-23	0
bin	-22	0
bin	-21	0
bin	-20	0
bin	-19	0
bin	-18	0
bin	-17	0
bin	-16	0
bin	-15	0
bin	-14	0
bin	-13	0
bin	-12	0
bin	-11	0
bin	-10	0
bin	-9	0
bin	-8	0
bin	-7	0
bin	-6	0
bin	-5	0
bin	-4	0
bin	-3	0
bin	-2	0
bin	-1	0
bin	0	1
bin	1	1
bin	2	2
bin	3	1
bin	4	1
bin	5	1
bin	6	1
bin	7	1
bin	8	1
bin	9	1
bin	10	2
bin	11	1
bin	12	0
bin	13	2
bin	14	2
bin	15	1
bin	16	2
bin	17	1
bin	18	1
bin	19	1
bin	20	1
bin	21	1
bin	22	1
bin	23	2
bin	24	1
bin	25	2
bin	26	2
bin	27	1
bin	28	2
bin	29	1
bin	30	1
bin	31	1
bin	32	2
bin	33	1
bin	34	1
bin	35	1
bin	36	2
bin	37	1
bin	38	1
bin	39	1
bin	40	1
bin	41	1
bin	42	2
bin	43	1
bin	44	1
bin	45	1
bin	46	1
bin	47	1
bin	48	1
bin	49	1
bin	50	1
bin	51	1
bin	52	1
bin	53	2
bin	54	1
bin	55	1
bin	56	2
bin	57	1
bin	58	1
bin	59	2
bin	60	1
bin	61	1
bin	62	1
bin	63	1
bin	64	2
bin	65	1
bin	66	1
bin	67	1
bin	68	1
bin	69	1
bin	70	2
bin	71	1
bin	72	1
bin	73	1
bin	74	1
bin	75	2
bin	76	1
bin	77	1
bin	78	1
bin	79	2
bin	80	1
bin	81	1
bin	82	1
bin	83	2
bin	84	1
bin	85	1
bin	86	1
bin	87	2
bin	88	1
bin	89	1
bin	90	1
bin	91	1
bin	92	1
bin	93	2
bin	94	1
bin	95	1
bin	96	1
[...]
bin	67	0
bin	68	0
bin	69	0
bin	70	0
bin	71	0
bin	72	0
bin	73	0
bin	74	0
bin	75	0
scalar SimphonyDHTNetwork.members[230] 	#packetsInTheNetwork 	28
statistic SimphonyDHTNetwork.members[230] 	"packets statistics"
field count 34
field mean 14.441176470588
field stddev 7.5365419948834
field sum 491
field sqrsum 8965
field min 0
field max 27
attr type  int
bin	-INF	0
bin	-14	0
bin	-13	0
bin	-12	0
bin	-11	0
bin	-10	0
bin	-9	0
bin	-8	0
bin	-7	0
bin	-6	0
bin	-5	0
bin	-4	0
bin	-3	0
bin	-2	0
bin	-1	0
bin	0	1
bin	1	0
bin	2	0
bin	3	1
bin	4	3
bin	5	0
bin	6	0
bin	7	2
bin	8	1
bin	9	2
bin	10	1
bin	11	2
bin	12	2
bin	13	1
bin	14	2
bin	15	1
bin	16	1
bin	17	1
bin	18	1
bin	19	2
bin	20	1
bin	21	2
bin	22	1
bin	23	1
bin	24	1
bin	25	1
bin	26	2
bin	27	1
bin	28	0
bin	29	0
bin	30	0
bin	31	0
bin	32	0
bin	33	0
bin	34	0
bin	35	0
bin	36	0
bin	37	0
bin	38	0
bin	39	0
bin	40	0
bin	41	0
scalar SimphonyDHTNetwork.members[231] 	#packetsInTheNetwork 	35
statistic SimphonyDHTNetwork.members[231] 	"packets statistics"
field count 44
field mean 18.25
field stddev 9.5943903183785
field sum 803
field sqrsum 18613
field min 0
field max 34
attr type  int
bin	-INF	0
bin	-17	0
bin	-16	0
bin	-15	0
bin	-14	0
bin	-13	0
bin	-12	0
bin	-11	0
bin	-10	0
bin	-9	0
bin	-8	0
bin	-7	0
bin	-6	0
bin	-5	0
bin	-4	0
bin	-3	0
bin	-2	0
bin	-1	0
bin	0	1
bin	1	0
bin	2	0
bin	3	1
bin	4	3
bin	5	0
bin	6	0
bin	7	2
bin	8	1
bin	9	2
bin	10	1
bin	11	2
bin	12	2
bin	13	1
bin	14	1
bin	15	1
bin	16	2
bin	17	1
bin	18	1
bin	19	1
bin	20	2
bin	21	1
bin	22	1
bin	23	1
bin	24	2
bin	25	1
bin	26	2
bin	27	2
bin	28	1
bin	29	2
bin	30	1
bin	31	1
bin	32	1
bin	33	2
bin	34	1
bin	35	0
bin	36	0
bin	37	0
bin	38	0
bin	39	0
bin	40	0
bin	41	0
bin	42	0
bin	43	0
bin	44	0
bin	45	0
bin	46	0
bin	47	0
bin	48	0
bin	49	0
bin	50	0
bin	51	0
scalar SimphonyDHTNetwork.members[232] 	#packetsInTheNetwork 	28
statistic SimphonyDHTNetwork.members[232] 	"packets statistics"
field count 34
field mean 14.441176470588
field stddev 7.548594797872
field sum 491
field sqrsum 8971
field min 0
field max 27
attr type  int
bin	-INF	0
bin	-14	0
bin	-13	0
bin	-12	0
bin	-11	0
bin	-10	0
bin	-9	0
bin	-8	0
bin	-7	0
bin	-6	0
bin	-5	0
bin	-4	0
bin	-3	0
bin	-2	0
bin	-1	0
bin	0	1
bin	1	0
bin	2	0
bin	3	1
bin	4	3
bin	5	0
bin	6	0
bin	7	2
bin	8	1
bin	9	2
bin	10	1
bin	11	2
bin	12	2
bin	13	1
bin	14	2
bin	15	1
bin	16	1
bin	17	1
bin	18	2
bin	19	1
bin	20	1
bin	21	1
bin	22	2
bin	23	1
bin	24	1
bin	25	1
bin	26	2
bin	27	1
bin	28	0
bin	29	0
bin	30	0
bin	31	0
bin	32	0
bin	33	0
bin	34	0
bin	35	0
bin	36	0
bin	37	0
bin	38	0
bin	39	0
bin	40	0
bin	41	0
scalar SimphonyDHTNetwork.members[233] 	#packetsInTheNetwork 	25
statistic SimphonyDHTNetwork.members[233] 	"packets statistics"
field count 30
field mean 12.9
field stddev 6.6246665498387
field sum 387
field sqrsum 6265
field min 0
field max 24
attr type  int
bin	-INF	0
bin	-12	0
bin	-11	0
bin	-10	0
bin	-9	0
bin	-8	0
bin	-7	0
bin	-6	0
bin	-5	0
bin	-4	0
bin	-3	0
bin	-2	0
bin	-1	0
bin	0	1
bin	1	0
bin	2	0
bin	3	1
bin	4	3
bin	5	0
bin	6	0
bin	7	2
bin	8	1
bin	9	2
bin	10	1
bin	11	2
bin	12	2
bin	13	1
bin	14	2
bin	15	1
bin	16	1
bin	17	1
bin	18	2
bin	19	1
bin	20	1
bin	21	1
bin	22	2
bin	23	1
bin	24	1
bin	25	0
bin	26	0
bin	27	0
bin	28	0
bin	29	0
bin	30	0
bin	31	0
bin	32	0
bin	33	0
bin	34	0
bin	35	0
bin	36	0
scalar SimphonyDHTNetwork.members[234] 	#packetsInTheNetwork 	37
statistic SimphonyDHTNetwork.members[234] 	"packets statistics"
field count 45
field mean 19.022222222222
field stddev 10.190211187233
field sum 856
field sqrsum 20852
field min 0
field max 36
attr type  int
bin	-INF	0
bin	-18	0
bin	-17	0
bin	-16	0
bin	-15	0
bin	-14	0
bin	-13	0
bin	-12	0
bin	-11	0
bin	-10	0
bin	-9	0
bin	-8	0
bin	-7	0
bin	-6	0
bin	-5	0
bin	-4	0
bin	-3	0
bin	-2	0
bin	-1	0
bin	0	1
bin	1	0
bin	2	0
bin	3	1
bin	4	3
bin	5	0
bin	6	0
bin	7	2
bin	8	1
bin	9	2
bin	10	1
bin	11	2
bin	12	2
bin	13	1
bin	14	1
bin	15	1
bin	16	1
bin	17	1
bin	18	1
bin	19	1
bin	20	2
bin	21	2
bin	22	1
bin	23	2
bin	24	1
bin	25	1
bin	26	1
bin	27	2
bin	28	1
bin	29	1
bin	30	1
bin	31	2
bin	32	1
bin	33	1
bin	34	1
bin	35	2
bin	36	1
bin	37	0
bin	38	0
bin	39	0
bin	40	0
bin	41	0
bin	42	0
bin	43	0
bin	44	0
bin	45	0
bin	46	0
bin	47	0
bin	48	0
bin	49	0
bin	50	0
bin	51	0
bin	52	0
bin	53	0
bin	54	0
scalar SimphonyDHTNetwork.members[235] 	#packetsInTheNetwork 	32
statistic SimphonyDHTNetwork.members[235] 	"packets statistics"
field count 39
field mean 16.384615384615
field stddev 8.7166367989621
field sum 639
field sqrsum 13357
field min 0
field max 31
attr type  int
bin	-INF	0
bin	-16	0
bin	-15	0
bin	-14	0
bin	-13	0
bin	-12	0
bin	-11	0
bin	-10	0
bin	-9	0
bin	-8	0
bin	-7	0
bin	-6	0
bin	-5	0
bin	-4	0
bin	-3	0
bin	-2	0
bin	-1	0
bin	0	1
bin	1	0
bin	2	0
bin	3	1
bin	4	3
bin	5	0
bin	6	0
bin	7	2
bin	8	1
bin	9	2
bin	10	1
bin	11	2
bin	12	2
bin	13	1
bin	14	2
bin	15	1
bin	16	1
bin	17	1
bin	18	2
bin	19	1
bin	20	1
bin	21	1
bin	22	2
bin	23	1
bin	24	1
bin	25	1
bin	26	2
bin	27	1
bin	28	1
bin	29	1
bin	30	2
bin	31	1
bin	32	0
bin	33	0
bin	34	0
bin	35	0
bin	36	0
bin	37	0
bin	38	0
bin	39	0
bin	40	0
bin	41	0
bin	42	0
bin	43	0
bin	44	0
bin	45	0
bin	46	0
bin	47	0
scalar SimphonyDHTNetwork.members[236] 	#packetsInTheNetwork 	22
statistic SimphonyDHTNetwork.members[236] 	"packets statistics"
field count 25
field mean 11.2
field stddev 5.744562646538
field sum 280
field sqrsum 3928
field min 0
field max 21
attr type  int
bin	-INF	0
bin	-11	0
bin	-10	0
bin	-9	0
bin	-8	0
bin	-7	0
bin	-6	0
bin	-5	0
bin	-4	0
bin	-3	0
bin	-2	0
bin	-1	0
bin	0	1
bin	1	0
bin	2	0
bin	3	1
bin	4	3
bin	5	0
bin	6	0
bin	7	2
bin	8	1
bin	9	2
bin	10	1
bin	11	2
bin	12	2
bin	13	1
bin	14	1
bin	15	1
bin	16	2
bin	17	1
bin	18	1
bin	19	1
bin	20	1
bin	21	1
bin	22	0
bin	23	0
bin	24	0
bin	25	0
bin	26	0
bin	27	0
bin	28	0
bin	29	0
bin	30	0
bin	31	0
bin	32	0
scalar SimphonyDHTNetwork.members[237] 	#packetsInTheNetwork 	39
statistic SimphonyDHTNetwork.members[237] 	"packets statistics"
field count 48
field mean 20.208333333333
field stddev 10.552721406254
field sum 970
field sqrsum 24836
field min 0
field max 38
attr type  int
bin	-INF	0
bin	-19	0
bin	-18	0
bin	-17	0
bin	-16	0
bin	-15	0
bin	-14	0
bin	-13	0
bin	-12	0
bin	-11	0
bin	-10	0
bin	-9	0
bin	-8	0
bin	-7	0
bin	-6	0
bin	-5	0
bin	-4	0
bin	-3	0
bin	-2	0
bin	-1	0
bin	0	1
bin	1	0
bin	2	0
bin	3	1
bin	4	3
bin	5	0
bin	6	0
bin	7	1
bin	8	2
bin	9	1
bin	10	2
bin	11	1
bin	12	1
bin	13	1
bin	14	2
bin	15	1
bin	16	1
bin	17	2
bin	18	2
bin	19	1
bin	20	2
bin	21	1
bin	22	1
bin	23	1
bin	24	1
bin	25	2
bin	26	2
bin	27	1
bin	28	2
bin	29	1
bin	30	1
bin	31	1
bin	32	2
bin	33	1
bin	34	1
bin	35	1
bin	36	1
bin	37	2
bin	38	1
bin	39	0
bin	40	0
bin	41	0
bin	42	0
bin	43	0
bin	44	0
bin	45	0
bin	46	0
bin	47	0
bin	48	0
bin	49	0
bin	50	0
bin	51	0
bin	52	0
bin	53	0
bin	54	0
bin	55	0
bin	56	0
bin	57	0
scalar SimphonyDHTNetwork.members[238] 	#packetsInTheNetwork 	13
statistic SimphonyDHTNetwork.members[238] 	"packets statistics"
field count 15
field mean 7.4
field stddev 3.6800621112771
field sum 111
field sqrsum 1011
field min 0
field max 12
attr type  int
bin	-INF	0
bin	-6	0
bin	-5	0
bin	-4	0
bin	-3	0
bin	-2	0
bin	-1	0
bin	0	1
bin	1	0
bin	2	0
bin	3	1
bin	4	3
bin	5	0
bin	6	0
bin	7	2
bin	8	1
bin	9	2
bin	10	1
bin	11	2
bin	12	2
bin	13	0
bin	14	0
bin	15	0
bin	16	0
bin	17	0
bin	18	0
scalar SimphonyDHTNetwork.members[239] 	#packetsInTheNetwork 	31
statistic SimphonyDHTNetwork.members[239] 	"packets statistics"
field count 37
field mean 15.945945945946
field stddev 8.5047240008321
field sum 590
field sqrsum 12012
field min 0
field max 30
attr type  int
bin	-INF	0
bin	-15	0
bin	-14	0
bin	-13	0
bin	-12	0
bin	-11	0
bin	-10	0
bin	-9	0
bin	-8	0
bin	-7	0
bin	-6	0
bin	-5	0
bin	-4	0
bin	-3	0
bin	-2	0
bin	-1	0
bin	0	1
bin	1	0
bin	2	0
bin	3	1
bin	4	3
bin	5	0
bin	6	0
bin	7	2
bin	8	1
bin	9	2
bin	10	1
bin	11	2
bin	12	2
bin	13	1
bin	14	1
bin	15	1
bin	16	1
bin	17	2
bin	18	1
bin	19	1
bin	20	1
bin	21	2
bin	22	1
bin	23	1
bin	24	1
bin	25	2
bin	26	1
bin	27	1
bin	28	1
bin	29	2
bin	30	1
bin	31	0
bin	32	0
bin	33	0
bin	34	0
bin	35	0
bin	36	0
bin	37	0
bin	38	0
bin	39	0
bin	40	0
bin	41	0
bin	42	0
bin	43	0
bin	44	0
bin	45	0
scalar SimphonyDHTNetwork.members[240] 	#packetsInTheNetwork 	70
statistic SimphonyDHTNetwork.members[240] 	"packets statistics"
field count 87
field mean 35.16091954023
field stddev 19.850530754558
field sum 3059
field sqrsum 141445
field min 0
field max 69
attr type  int
bin	-INF	0
bin	-35	0
bin	-34	0
bin	-33	0
bin	-32	0
bin	-31	0
bin	-30	0
bin	-29	0
bin	-28	0
bin	-27	0
bin	-26	0
bin	-25	0
bin	-24	0
bin	-23	0
bin	-22	0
bin	-21	0
bin	-20	0
bin	-19	0
bin	-18	0
bin	-17	0
bin	-16	0
bin	-15	0
bin	-14	0
bin	-13	0
bin	-12	0
bin	-11	0
bin	-10	0
bin	-9	0
bin	-8	0
bin	-7	0
bin	-6	0
bin	-5	0
bin	-4	0
bin	-3	0
bin	-2	0
bin	-1	0
bin	0	1
bin	1	0
bin	2	0
bin	3	1
bin	4	3
bin	5	0
bin	6	0
bin	7	2
bin	8	1
bin	9	2
bin	10	1
bin	11	2
bin	12	2
bin	13	1
bin	14	2
bin	15	1
bin	16	1
bin	17	1
bin	18	2
bin	19	1
bin	20	1
bin	21	1
bin	22	2
bin	23	1
bin	24	2
bin	25	1
bin	26	1
bin	27	1
bin	28	1
bin	29	2
bin	30	1
bin	31	1
bin	32	1
bin	33	2
bin	34	1
bin	35	1
bin	36	2
bin	37	1
bin	38	1
bin	39	1
bin	40	2
bin	41	1
bin	42	1
bin	43	1
bin	44	2
bin	45	1
bin	46	1
bin	47	1
bin	48	2
bin	49	1
bin	50	1
bin	51	2
bin	52	1
bin	53	1
bin	54	1
bin	55	1
bin	56	1
bin	57	2
bin	58	1
bin	59	1
bin	60	1
bin	61	1
bin	62	2
bin	63	1
bin	64	1
bin	65	2
bin	66	1
bin	67	1
bin	68	2
bin	69	1
bin	70	0
bin	71	0
bin	72	0
bin	73	0
bin	74	0
bin	75	0
bin	76	0
bin	77	0
bin	78	0
bin	79	0
bin	80	0
bin	81	0
bin	82	0
bin	83	0
bin	84	0
bin	85	0
bin	86	0
bin	87	0
bin	88	0
bin	89	0
bin	90	0
bin	91	0
bin	92	0
bin	93	0
bin	94	0
bin	95	0
bin	96	0
bin	97	0
bin	98	0
bin	99	0
bin	100	0
bin	101	0
bin	102	0
bin	103	0
bin	104	0
scalar SimphonyDHTNetwork.members[241] 	#packetsInTheNetwork 	35
statistic SimphonyDHTNetwork.members[241] 	"packets statistics"
field count 44
field mean 18.022727272727
field stddev 9.5344873067701
field sum 793
field sqrsum 18201
field min 0
field max 34
attr type  int
bin	-INF	0
bin	-17	0
bin	-16	0
bin	-15	0
bin	-14	0
bin	-13	0
bin	-12	0
bin	-11	0
bin	-10	0
bin	-9	0
bin	-8	0
bin	-7	0
bin	-6	0
bin	-5	0
bin	-4	0
bin	-3	0
bin	-2	0
bin	-1	0
bin	0	1
bin	1	0
bin	2	0
bin	3	1
bin	4	3
bin	5	0
bin	6	0
bin	7	2
bin	8	1
bin	9	2
bin	10	1
bin	11	2
bin	12	2
bin	13	1
bin	14	2
bin	15	1
bin	16	1
bin	17	1
bin	18	2
bin	19	1
bin	20	1
bin	21	2
bin	22	1
bin	23	2
bin	24	1
bin	25	1
bin	26	2
bin	27	1
bin	28	1
bin	29	1
bin	30	2
bin	31	1
bin	32	1
bin	33	2
bin	34	1
bin	35	0
bin	36	0
bin	37	0
bin	38	0
bin	39	0
bin	40	0
bin	41	0
bin	42	0
bin	43	0
bin	44	0
bin	45	0
bin	46	0
bin	47	0
bin	48	0
bin	49	0
bin	50	0
bin	51	0
scalar SimphonyDHTNetwork.members[242] 	#packetsInTheNetwork 	25
statistic SimphonyDHTNetwork.members[242] 	"packets statistics"
field count 31
field mean 13.161290322581
field stddev 6.6837952003012
field sum 408
field sqrsum 6710
field min 0
field max 24
attr type  int
bin	-INF	0
bin	-12	0
bin	-11	0
bin	-10	0
bin	-9	0
bin	-8	0
bin	-7	0
bin	-6	0
bin	-5	0
bin	-4	0
bin	-3	0
bin	-2	0
bin	-1	0
bin	0	1
bin	1	0
bin	2	0
bin	3	1
bin	4	3
bin	5	0
bin	6	0
bin	7	2
bin	8	1
bin	9	2
bin	10	1
bin	11	2
bin	12	2
bin	13	1
bin	14	2
bin	15	1
bin	16	1
bin	17	1
bin	18	2
bin	19	1
bin	20	2
bin	21	1
bin	22	1
bin	23	2
bin	24	1
bin	25	0
bin	26	0
bin	27	0
bin	28	0
bin	29	0
bin	30	0
bin	31	0
bin	32	0
bin	33	0
bin	34	0
bin	35	0
bin	36	0
scalar SimphonyDHTNetwork.members[243] 	#packetsInTheNetwork 	28
statistic SimphonyDHTNetwork.members[243] 	"packets statistics"
field count 33
field mean 14.454545454545
field stddev 7.6652254903676
field sum 477
field sqrsum 8775
field min 0
field max 27
attr type  int
bin	-INF	0
bin	-14	0
bin	-13	0
bin	-12	0
bin	-11	0
bin	-10	0
bin	-9	0
bin	-8	0
bin	-7	0
bin	-6	0
bin	-5	0
bin	-4	0
bin	-3	0
bin	-2	0
bin	-1	0
bin	0	1
bin	1	0
bin	2	0
bin	3	1
bin	4	3
bin	5	0
bin	6	0
bin	7	2
bin	8	1
bin	9	2
bin	10	1
bin	11	2
bin	12	2
bin	13	1
bin	14	1
bin	15	1
bin	16	1
bin	17	1
bin	18	2
bin	19	1
bin	20	1
bin	21	1
bin	22	2
bin	23	1
bin	24	1
bin	25	1
bin	26	2
bin	27	1
bin	28	0
bin	29	0
bin	30	0
bin	31	0
bin	32	0
bin	33	0
bin	34	0
bin	35	0
bin	36	0
bin	37	0
bin	38	0
bin	39	0
bin	40	0
bin	41	0
scalar SimphonyDHTNetwork.members[244] 	#packetsInTheNetwork 	12
statistic SimphonyDHTNetwork.members[244] 	"packets statistics"
field count 14
field mean 7.0714285714286
field stddev 3.5833865742701
field sum 99
field sqrsum 867
field min 0
field max 12
attr type  int
bin	-INF	0
bin	-6	0
bin	-5	0
bin	-4	0
bin	-3	0
bin	-2	0
bin	-1	0
bin	0	1
bin	1	0
bin	2	0
bin	3	1
bin	4	3
bin	5	0
bin	6	0
bin	7	2
bin	8	1
bin	9	2
bin	10	1
bin	11	2
bin	12	1
bin	13	0
bin	14	0
bin	15	0
bin	16	0
bin	17	0
bin	18	0
scalar SimphonyDHTNetwork.members[245] 	#packetsInTheNetwork 	22
statistic SimphonyDHTNetwork.members[245] 	"packets statistics"
field count 26
field mean 11.923076923077
field stddev 6.0327312350084
field sum 310
field sqrsum 4606
field min 0
field max 21
attr type  int
bin	-INF	0
bin	-11	0
bin	-10	0
bin	-9	0
bin	-8	0
bin	-7	0
bin	-6	0
bin	-5	0
bin	-4	0
bin	-3	0
bin	-2	0
bin	-1	0
bin	0	1
bin	1	0
bin	2	0
bin	3	1
bin	4	3
bin	5	0
bin	6	0
bin	7	1
bin	8	2
bin	9	1
bin	10	2
bin	11	1
bin	12	2
bin	13	1
bin	14	1
bin	15	1
bin	16	2
bin	17	1
bin	18	2
bin	19	1
bin	20	1
bin	21	2
bin	22	0
bin	23	0
bin	24	0
bin	25	0
bin	26	0
bin	27	0
bin	28	0
bin	29	0
bin	30	0
bin	31	0
bin	32	0
scalar SimphonyDHTNetwork.members[246] 	#packetsInTheNetwork 	24
statistic SimphonyDHTNetwork.members[246] 	"packets statistics"
field count 29
field mean 12.51724137931
field stddev 6.3954263214044
field sum 363
field sqrsum 5689
field min 0
field max 23
attr type  int
bin	-INF	0
bin	-12	0
bin	-11	0
bin	-10	0
bin	-9	0
bin	-8	0
bin	-7	0
bin	-6	0
bin	-5	0
bin	-4	0
bin	-3	0
bin	-2	0
bin	-1	0
bin	0	1
bin	1	0
bin	2	0
bin	3	1
bin	4	3
bin	5	0
bin	6	0
bin	7	2
bin	8	1
bin	9	2
bin	10	1
bin	11	2
bin	12	2
bin	13	1
bin	14	2
bin	15	1
bin	16	1
bin	17	1
bin	18	2
bin	19	1
bin	20	1
bin	21	1
bin	22	2
bin	23	1
bin	24	0
bin	25	0
bin	26	0
bin	27	0
bin	28	0
bin	29	0
bin	30	0
bin	31	0
bin	32	0
bin	33	0
bin	34	0
bin	35	0
scalar SimphonyDHTNetwork.members[247] 	#packetsInTheNetwork 	24
statistic SimphonyDHTNetwork.members[247] 	"packets statistics"
field count 29
field mean 13
field stddev 6.4752275194445
field sum 377
field sqrsum 6075
field min 0
field max 23
attr type  int
bin	-INF	0
bin	-12	0
bin	-11	0
bin	-10	0
bin	-9	0
bin	-8	0
bin	-7	0
bin	-6	0
bin	-5	0
bin	-4	0
bin	-3	0
bin	-2	0
bin	-1	0
bin	0	1
bin	1	0
bin	2	0
bin	3	1
bin	4	3
bin	5	0
bin	6	0
bin	7	1
bin	8	2
bin	9	1
bin	10	2
bin	11	1
bin	12	1
bin	13	1
bin	14	2
bin	15	1
bin	16	2
bin	17	1
bin	18	2
bin	19	2
bin	20	1
bin	21	1
bin	22	2
bin	23	1
bin	24	0
bin	25	0
bin	26	0
bin	27	0
bin	28	0
bin	29	0
bin	30	0
bin	31	0
bin	32	0
bin	33	0
bin	34	0
bin	35	0
scalar SimphonyDHTNetwork.members[248] 	#packetsInTheNetwork 	40
statistic SimphonyDHTNetwork.members[248] 	"packets statistics"
field count 50
field mean 20.2
field stddev 10.924602453889
field sum 1010
field sqrsum 26250
field min 0
field max 39
attr type  int
bin	-INF	0
bin	-20	0
bin	-19	0
bin	-18	0
bin	-17	0
bin	-16	0
bin	-15	0
bin	-14	0
bin	-13	0
bin	-12	0
bin	-11	0
bin	-10	0
bin	-9	0
bin	-8	0
bin	-7	0
bin	-6	0
bin	-5	0
bin	-4	0
bin	-3	0
bin	-2	0
bin	-1	0
bin	0	1
bin	1	0
bin	2	0
bin	3	1
bin	4	3
bin	5	0
bin	6	0
bin	7	2
bin	8	1
bin	9	2
bin	10	1
bin	11	2
bin	12	2
bin	13	1
bin	14	1
bin	15	2
bin	16	2
bin	17	1
bin	18	1
bin	19	2
bin	20	1
bin	21	2
bin	22	1
bin	23	1
bin	24	1
bin	25	2
bin	26	1
bin	27	1
bin	28	1
bin	29	2
bin	30	1
bin	31	1
bin	32	1
bin	33	1
bin	34	2
bin	35	1
bin	36	1
bin	37	1
bin	38	2
bin	39	1
bin	40	0
bin	41	0
bin	42	0
bin	43	0
bin	44	0
bin	45	0
bin	46	0
bin	47	0
bin	48	0
bin	49	0
bin	50	0
bin	51	0
bin	52	0
bin	53	0
bin	54	0
bin	55	0
bin	56	0
bin	57	0
bin	58	0
bin	59	0
scalar SimphonyDHTNetwork.members[249] 	#packetsInTheNetwork 	17
statistic SimphonyDHTNetwork.members[249] 	"packets statistics"
field count 20
field mean 9.15
field stddev 4.4635954353555
field sum 183
field sqrsum 2053
field min 0
field max 16
attr type  int
bin	-INF	0
bin	-8	0
bin	-7	0
bin	-6	0
bin	-5	0
bin	-4	0
bin	-3	0
bin	-2	0
bin	-1	0
bin	0	1
bin	1	0
bin	2	0
bin	3	1
bin	4	3
bin	5	0
bin	6	0
bin	7	2
bin	8	1
bin	9	2
bin	10	1
bin	11	2
bin	12	2
bin	13	1
bin	14	2
bin	15	1
bin	16	1
bin	17	0
bin	18	0
bin	19	0
bin	20	0
bin	21	0
bin	22	0
bin	23	0
bin	24	0
scalar SimphonyDHTNetwork.members[250] 	#packetsInTheNetwork 	16
statistic SimphonyDHTNetwork.members[250] 	"packets statistics"
field count 19
field mean 8.7894736842105
field stddev 4.2762775526856
field sum 167
field sqrsum 1797
field min 0
field max 15
attr type  int
bin	-INF	0
bin	-8	0
bin	-7	0
bin	-6	0
bin	-5	0
bin	-4	0
bin	-3	0
bin	-2	0
bin	-1	0
bin	0	1
bin	1	0
bin	2	0
bin	3	1
bin	4	3
bin	5	0
bin	6	0
bin	7	2
bin	8	1
bin	9	2
bin	10	1
bin	11	2
bin	12	2
bin	13	1
bin	14	2
bin	15	1
bin	16	0
bin	17	0
bin	18	0
bin	19	0
bin	20	0
bin	21	0
bin	22	0
bin	23	0
scalar SimphonyDHTNetwork.members[251] 	#packetsInTheNetwork 	26
statistic SimphonyDHTNetwork.members[251] 	"packets statistics"
field count 31
field mean 13.677419354839
field stddev 6.9779992202837
field sum 424
field sqrsum 7260
field min 0
field max 25
attr type  int
bin	-INF	0
bin	-13	0
bin	-12	0
bin	-11	0
bin	-10	0
bin	-9	0
bin	-8	0
bin	-7	0
bin	-6	0
bin	-5	0
bin	-4	0
bin	-3	0
bin	-2	0
bin	-1	0
bin	0	1
bin	1	0
bin	2	0
bin	3	1
bin	4	3
bin	5	0
bin	6	0
bin	7	1
bin	8	2
bin	9	1
bin	10	2
bin	11	1
bin	12	2
bin	13	1
bin	14	2
bin	15	1
bin	16	1
bin	17	2
bin	18	1
bin	19	1
bin	20	2
bin	21	1
bin	22	1
bin	23	1
bin	24	2
bin	25	1
bin	26	0
bin	27	0
bin	28	0
bin	29	0
bin	30	0
bin	31	0
bin	32	0
bin	33	0
bin	34	0
bin	35	0
bin	36	0
bin	37	0
bin	38	0
scalar SimphonyDHTNetwork.members[252] 	#packetsInTheNetwork 	28
statistic SimphonyDHTNetwork.members[252] 	"packets statistics"
field count 34
field mean 14.941176470588
field stddev 7.6473056315581
field sum 508
field sqrsum 9520
field min 0
field max 27
attr type  int
bin	-INF	0
bin	-14	0
bin	-13	0
bin	-12	0
bin	-11	0
bin	-10	0
bin	-9	0
bin	-8	0
bin	-7	0
bin	-6	0
bin	-5	0
bin	-4	0
bin	-3	0
bin	-2	0
bin	-1	0
bin	0	1
bin	1	0
bin	2	0
bin	3	1
bin	4	3
bin	5	0
bin	6	0
bin	7	1
bin	8	2
bin	9	1
bin	10	2
bin	11	1
bin	12	2
bin	13	1
bin	14	1
bin	15	1
bin	16	2
bin	17	1
bin	18	2
bin	19	1
bin	20	1
bin	21	1
bin	22	2
bin	23	1
bin	24	2
bin	25	1
bin	26	2
bin	27	1
bin	28	0
bin	29	0
bin	30	0
bin	31	0
bin	32	0
bin	33	0
bin	34	0
bin	35	0
bin	36	0
bin	37	0
bin	38	0
bin	39	0
bin	40	0
bin	41	0
scalar SimphonyDHTNetwork.members[253] 	#packetsInTheNetwork 	21
statistic SimphonyDHTNetwork.members[253] 	"packets statistics"
field count 25
field mean 11.64
field stddev 5.964338465692
field sum 291
field sqrsum 4241
field min 0
field max 21
attr type  int
bin	-INF	0
bin	-11	0
bin	-10	0
bin	-9	0
bin	-8	0
bin	-7	0
bin	-6	0
bin	-5	0
bin	-4	0
bin	-3	0
bin	-2	0
bin	-1	0
bin	0	1
bin	1	0
bin	2	0
bin	3	1
bin	4	3
bin	5	0
bin	6	0
bin	7	1
bin	8	2
bin	9	1
bin	10	2
bin	11	1
bin	12	2
bin	13	1
bin	14	1
bin	15	1
bin	16	2
bin	17	1
bin	18	1
bin	19	1
bin	20	2
bin	21	1
bin	22	0
bin	23	0
bin	24	0
bin	25	0
bin	26	0
bin	27	0
bin	28	0
bin	29	0
bin	30	0
bin	31	0
bin	32	0
scalar SimphonyDHTNetwork.members[254] 	#packetsInTheNetwork 	16
statistic SimphonyDHTNetwork.members[254] 	"packets statistics"
field count 19
field mean 8.7894736842105
field stddev 4.2762775526856
field sum 167
field sqrsum 1797
field min 0
field max 15
attr type  int
bin	-INF	0
bin	-8	0
bin	-7	0
bin	-6	0
bin	-5	0
bin	-4	0
bin	-3	0
bin	-2	0
bin	-1	0
bin	0	1
bin	1	0
bin	2	0
bin	3	1
bin	4	3
bin	5	0
bin	6	0
bin	7	2
bin	8	1
bin	9	2
bin	10	1
bin	11	2
bin	12	2
bin	13	1
bin	14	2
bin	15	1
bin	16	0
bin	17	0
bin	18	0
bin	19	0
bin	20	0
bin	21	0
bin	22	0
bin	23	0
scalar SimphonyDHTNetwork.members[255] 	#packetsInTheNetwork 	18
statistic SimphonyDHTNetwork.members[255] 	"packets statistics"
field count 21
field mean 10.238095238095
field stddev 5.2526637233385
field sum 215
field sqrsum 2753
field min 0
field max 18
attr type  int
bin	-INF	0
bin	-9	0
bin	-8	0
bin	-7	0
bin	-6	0
bin	-5	0
bin	-4	0
bin	-3	0
bin	-2	0
bin	-1	0
bin	0	1
bin	1	0
bin	2	0
bin	3	1
bin	4	3
bin	5	0
bin	6	0
bin	7	1
bin	8	2
bin	9	1
bin	10	2
bin	11	1
bin	12	1
bin	13	1
bin	14	1
bin	15	2
bin	16	1
bin	17	2
bin	18	1
bin	19	0
bin	20	0
bin	21	0
bin	22	0
bin	23	0
bin	24	0
bin	25	0
bin	26	0
bin	27	0
