version 2
run TwoThousandNodes-0-20130111-17:26:43-3361
attr configname TwoThousandNodes
attr datetime 20130111-17:26:43
attr experiment TwoThousandNodes
attr inifile omnetpp.ini
attr iterationvars ""
attr iterationvars2 $repetition=0
attr measurement ""
attr network SimphonyDHTNetwork
attr processid 3361
attr repetition 0
attr replication #0
attr resultdir results
attr runnumber 0
attr seedset 0

scalar SimphonyDHTNetwork.members[0] 	#packetsInTheNetwork 	783
statistic SimphonyDHTNetwork.members[0] 	"packets statistics"
field count 971
field mean 387.63439752832
field stddev 225.42585863965
field sum 376393
field sqrsum 195195187
field min 0
field max 782
attr type  int
bin	-INF	0
bin	-40	0
bin	-39	0
bin	-38	0
bin	-37	0
bin	-36	0
bin	-35	0
bin	-34	0
bin	-33	0
bin	-32	0
bin	-31	0
bin	-30	0
bin	-29	0
bin	-28	0
bin	-27	0
bin	-26	0
bin	-25	0
bin	-24	0
bin	-23	0
bin	-22	0
bin	-21	0
bin	-20	0
bin	-19	0
bin	-18	0
bin	-17	0
bin	-16	0
bin	-15	0
bin	-14	0
bin	-13	0
bin	-12	0
bin	-11	0
bin	-10	0
bin	-9	0
bin	-8	0
bin	-7	0
bin	-6	0
bin	-5	0
bin	-4	0
bin	-3	0
bin	-2	0
bin	-1	0
bin	0	1
bin	1	1
bin	2	2
bin	3	1
bin	4	1
bin	5	1
bin	6	2
bin	7	1
bin	8	1
bin	9	1
bin	10	2
bin	11	1
bin	12	1
bin	13	2
bin	14	1
bin	15	1
bin	16	2
bin	17	1
bin	18	1
bin	19	2
bin	20	1
bin	21	1
bin	22	1
bin	23	2
bin	24	1
bin	25	1
bin	26	1
bin	27	2
bin	28	1
bin	29	1
bin	30	2
bin	31	1
bin	32	1
bin	33	2
bin	34	1
bin	35	1
bin	36	1
bin	37	1
bin	38	2
bin	39	1
bin	40	1
bin	41	1
bin	42	1
bin	43	2
bin	44	1
bin	45	1
bin	46	2
bin	47	1
bin	48	1
bin	49	2
bin	50	1
bin	51	1
bin	52	1
bin	53	2
bin	54	1
bin	55	1
bin	56	1
bin	57	1
bin	58	1
bin	59	2
bin	60	1
bin	61	1
bin	62	1
bin	63	1
bin	64	2
bin	65	1
bin	66	1
bin	67	2
bin	68	1
bin	69	1
bin	70	1
bin	71	1
bin	72	1
bin	73	1
bin	74	1
bin	75	2
bin	76	1
bin	77	1
bin	78	1
bin	79	1
bin	80	1
bin	81	2
bin	82	2
bin	83	1
bin	84	2
bin	85	1
bin	86	1
bin	87	1
bin	88	2
bin	89	1
bin	90	1
bin	91	1
bin	92	2
bin	93	1
bin	94	1
bin	95	2
bin	96	1
bin	97	1
bin	98	1
bin	99	2
bin	100	1
bin	101	1
bin	102	2
bin	103	1
bin	104	1
bin	105	2
bin	106	1
bin	107	1
bin	108	2
bin	109	1
bin	110	1
bin	111	2
bin	112	1
bin	113	1
bin	114	2
bin	115	1
bin	116	1
bin	117	2
bin	118	1
bin	119	1
bin	120	819
scalar SimphonyDHTNetwork.members[1] 	#packetsInTheNetwork 	2211
statistic SimphonyDHTNetwork.members[1] 	"packets statistics"
field count 2767
field mean 1105.4662088905
field stddev 636.14812045679
field sum 3058825
field sqrsum 4500784813
field min 0
field max 2210
attr type  int
bin	-INF	0
bin	-41	0
bin	-40	0
bin	-39	0
bin	-38	0
bin	-37	0
bin	-36	0
bin	-35	0
bin	-34	0
bin	-33	0
bin	-32	0
bin	-31	0
bin	-30	0
bin	-29	0
bin	-28	0
bin	-27	0
bin	-26	0
bin	-25	0
bin	-24	0
bin	-23	0
bin	-22	0
bin	-21	0
bin	-20	0
bin	-19	0
bin	-18	0
bin	-17	0
bin	-16	0
bin	-15	0
bin	-14	0
bin	-13	0
bin	-12	0
bin	-11	0
bin	-10	0
bin	-9	0
bin	-8	0
bin	-7	0
bin	-6	0
bin	-5	0
bin	-4	0
bin	-3	0
bin	-2	0
bin	-1	0
bin	0	1
bin	1	1
bin	2	2
bin	3	1
bin	4	1
bin	5	1
bin	6	1
bin	7	2
bin	8	1
bin	9	1
bin	10	2
bin	11	1
bin	12	1
bin	13	1
bin	14	1
bin	15	1
bin	16	1
bin	17	1
bin	18	1
bin	19	2
bin	20	1
bin	21	1
bin	22	1
bin	23	1
bin	24	2
bin	25	1
bin	26	1
bin	27	1
bin	28	2
bin	29	1
bin	30	1
bin	31	1
bin	32	1
bin	33	1
bin	34	2
bin	35	1
bin	36	1
bin	37	1
bin	38	1
bin	39	2
bin	40	1
bin	41	2
bin	42	1
bin	43	1
bin	44	1
bin	45	2
bin	46	1
bin	47	1
bin	48	1
bin	49	1
bin	50	1
bin	51	2
bin	52	1
bin	53	1
bin	54	2
bin	55	1
bin	56	1
bin	57	1
bin	58	2
bin	59	1
bin	60	1
bin	61	1
bin	62	1
bin	63	2
bin	64	1
bin	65	1
bin	66	1
bin	67	1
bin	68	1
bin	69	2
bin	70	1
bin	71	1
bin	72	1
bin	73	1
bin	74	2
bin	75	1
bin	76	2
bin	77	1
bin	78	1
bin	79	2
bin	80	1
bin	81	1
bin	82	2
bin	83	1
bin	84	1
bin	85	1
bin	86	1
bin	87	2
bin	88	1
bin	89	1
bin	90	1
bin	91	2
bin	92	1
bin	93	1
bin	94	1
bin	95	2
bin	96	1
bin	97	2
bin	98	2
bin	99	1
bin	100	1
bin	101	2
bin	102	1
bin	103	2
bin	104	1
bin	105	1
bin	106	1
bin	107	1
bin	108	2
bin	109	1
bin	110	1
bin	111	1
bin	112	1
bin	113	1
bin	114	2
bin	115	1
bin	116	1
bin	117	1
bin	118	1
bin	119	1
bin	120	1
bin	121	1
bin	122	2617
scalar SimphonyDHTNetwork.members[2] 	#packetsInTheNetwork 	2620
statistic SimphonyDHTNetwork.members[2] 	"packets statistics"
field count 3369
field mean 1304.0056396557
field stddev 756.3796346348
field sum 4393195
field sqrsum 7655618047
field min 0
field max 2619
attr type  int
bin	-INF	0
bin	-39	0
bin	-38	0
bin	-37	0
bin	-36	0
bin	-35	0
bin	-34	0
bin	-33	0
bin	-32	0
bin	-31	0
bin	-30	0
bin	-29	0
bin	-28	0
bin	-27	0
bin	-26	0
bin	-25	0
bin	-24	0
bin	-23	0
bin	-22	0
bin	-21	0
bin	-20	0
bin	-19	0
bin	-18	0
bin	-17	0
bin	-16	0
bin	-15	0
bin	-14	0
bin	-13	0
bin	-12	0
bin	-11	0
bin	-10	0
bin	-9	0
bin	-8	0
bin	-7	0
bin	-6	0
bin	-5	0
bin	-4	0
bin	-3	0
bin	-2	0
bin	-1	0
bin	0	1
bin	1	1
bin	2	2
bin	3	1
bin	4	1
bin	5	1
bin	6	2
bin	7	1
bin	8	2
bin	9	1
bin	10	1
bin	11	1
bin	12	2
bin	13	1
bin	14	1
bin	15	2
bin	16	1
bin	17	1
bin	18	2
bin	19	1
bin	20	1
bin	21	2
bin	22	1
bin	23	1
bin	24	1
bin	25	2
bin	26	1
bin	27	1
bin	28	1
bin	29	2
bin	30	1
bin	31	1
bin	32	2
bin	33	1
bin	34	1
bin	35	1
bin	36	2
bin	37	1
bin	38	1
bin	39	1
bin	40	1
bin	41	2
bin	42	1
bin	43	0
bin	44	2
bin	45	2
bin	46	1
bin	47	2
bin	48	1
bin	49	1
bin	50	2
bin	51	1
bin	52	1
bin	53	2
bin	54	1
bin	55	1
bin	56	2
bin	57	1
bin	58	1
bin	59	2
bin	60	1
bin	61	1
bin	62	1
bin	63	2
bin	64	1
bin	65	1
bin	66	2
bin	67	1
bin	68	1
bin	69	1
bin	70	2
bin	71	1
bin	72	1
bin	73	1
bin	74	2
bin	75	1
bin	76	1
bin	77	2
bin	78	1
bin	79	1
bin	80	1
bin	81	2
bin	82	1
bin	83	1
bin	84	2
bin	85	1
bin	86	1
bin	87	1
bin	88	2
bin	89	1
bin	90	1
bin	91	1
bin	92	2
bin	93	1
bin	94	1
bin	95	2
bin	96	1
bin	97	1
bin	98	2
bin	99	1
bin	100	2
bin	101	1
bin	102	2
bin	103	1
bin	104	1
bin	105	2
bin	106	1
bin	107	1
bin	108	2
bin	109	1
bin	110	1
bin	111	2
bin	112	1
bin	113	1
bin	114	1
bin	115	2
bin	116	3218
scalar SimphonyDHTNetwork.members[3] 	#packetsInTheNetwork 	3211
statistic SimphonyDHTNetwork.members[3] 	"packets statistics"
field count 4083
field mean 1604.2289982856
field stddev 925.646729816
field sum 6550067
field sqrsum 14005354289
field min 0
field max 3210
attr type  int
bin	-INF	0
bin	-40	0
bin	-39	0
bin	-38	0
bin	-37	0
bin	-36	0
bin	-35	0
bin	-34	0
bin	-33	0
bin	-32	0
bin	-31	0
bin	-30	0
bin	-29	0
bin	-28	0
bin	-27	0
bin	-26	0
bin	-25	0
bin	-24	0
bin	-23	0
bin	-22	0
bin	-21	0
bin	-20	0
bin	-19	0
bin	-18	0
bin	-17	0
bin	-16	0
bin	-15	0
bin	-14	0
bin	-13	0
bin	-12	0
bin	-11	0
bin	-10	0
bin	-9	0
bin	-8	0
bin	-7	0
bin	-6	0
bin	-5	0
bin	-4	0
bin	-3	0
bin	-2	0
bin	-1	0
bin	0	1
bin	1	2
bin	2	1
bin	3	1
bin	4	1
bin	5	1
bin	6	2
bin	7	1
bin	8	1
bin	9	1
bin	10	2
bin	11	1
bin	12	1
bin	13	1
bin	14	2
bin	15	1
bin	16	1
bin	17	1
bin	18	2
bin	19	1
bin	20	1
bin	21	1
bin	22	1
bin	23	1
bin	24	2
bin	25	1
bin	26	1
bin	27	1
bin	28	1
bin	29	2
bin	30	1
bin	31	2
bin	32	1
bin	33	1
bin	34	1
bin	35	2
bin	36	1
bin	37	1
bin	38	1
bin	39	2
bin	40	1
bin	41	1
bin	42	1
bin	43	2
bin	44	1
bin	45	1
bin	46	2
bin	47	1
bin	48	2
bin	49	1
bin	50	1
bin	51	1
bin	52	2
bin	53	1
bin	54	1
bin	55	1
bin	56	1
bin	57	2
bin	58	1
bin	59	1
bin	60	1
bin	61	2
bin	62	1
bin	63	1
bin	64	1
bin	65	2
bin	66	1
bin	67	1
bin	68	1
bin	69	2
bin	70	1
bin	71	1
bin	72	1
bin	73	2
bin	74	1
bin	75	1
bin	76	1
bin	77	2
bin	78	1
bin	79	1
bin	80	2
bin	81	1
bin	82	1
bin	83	2
bin	84	1
bin	85	2
bin	86	1
bin	87	1
bin	88	1
bin	89	1
bin	90	2
bin	91	1
bin	92	1
bin	93	2
bin	94	1
bin	95	1
bin	96	1
bin	97	2
bin	98	1
bin	99	1
bin	100	2
bin	101	1
bin	102	1
bin	103	2
bin	104	1
bin	105	1
bin	106	1
bin	107	2
bin	108	1
bin	109	1
bin	110	1
bin	111	2
bin	112	1
bin	113	1
bin	114	2
bin	115	1
bin	116	1
bin	117	2
bin	118	1
bin	119	3932
scalar SimphonyDHTNetwork.members[4] 	#packetsInTheNetwork 	2751
statistic SimphonyDHTNetwork.members[4] 	"packets statistics"
field count 3470
field mean 1370.0351585014
field stddev 792.98115309885
field sum 4754022
field sqrsum 8694550774
field min 0
field max 2750
attr type  int
bin	-INF	0
bin	-39	0
bin	-38	0
bin	-37	0
bin	-36	0
bin	-35	0
bin	-34	0
bin	-33	0
bin	-32	0
bin	-31	0
bin	-30	0
bin	-29	0
bin	-28	0
bin	-27	0
bin	-26	0
bin	-25	0
bin	-24	0
bin	-23	0
bin	-22	0
bin	-21	0
bin	-20	0
bin	-19	0
bin	-18	0
bin	-17	0
bin	-16	0
bin	-15	0
bin	-14	0
bin	-13	0
bin	-12	0
bin	-11	0
bin	-10	0
bin	-9	0
bin	-8	0
bin	-7	0
bin	-6	0
bin	-5	0
bin	-4	0
bin	-3	0
bin	-2	0
bin	-1	0
bin	0	1
bin	1	1
bin	2	2
bin	3	1
bin	4	2
bin	5	1
bin	6	1
bin	7	1
bin	8	2
bin	9	1
bin	10	1
bin	11	1
bin	12	1
bin	13	2
bin	14	1
bin	15	1
bin	16	1
bin	17	2
bin	18	1
bin	19	1
bin	20	2
bin	21	1
bin	22	1
bin	23	2
bin	24	1
bin	25	2
bin	26	1
bin	27	1
bin	28	2
bin	29	1
bin	30	1
bin	31	1
bin	32	2
bin	33	1
bin	34	1
bin	35	1
bin	36	2
bin	37	1
bin	38	1
bin	39	1
bin	40	2
bin	41	1
bin	42	1
bin	43	1
bin	44	2
bin	45	1
bin	46	1
bin	47	1
bin	48	2
bin	49	1
bin	50	1
bin	51	1
bin	52	2
bin	53	1
bin	54	1
bin	55	1
bin	56	2
bin	57	1
bin	58	1
bin	59	2
bin	60	1
bin	61	1
bin	62	2
bin	63	1
bin	64	1
bin	65	1
bin	66	2
bin	67	1
bin	68	1
bin	69	1
bin	70	2
bin	71	1
bin	72	1
bin	73	2
bin	74	1
bin	75	1
bin	76	1
bin	77	1
bin	78	2
bin	79	1
bin	80	1
bin	81	1
bin	82	2
bin	83	1
bin	84	1
bin	85	1
bin	86	2
bin	87	1
bin	88	1
bin	89	1
bin	90	2
bin	91	1
bin	92	1
bin	93	1
bin	94	1
bin	95	1
bin	96	1
bin	97	1
bin	98	2
bin	99	1
bin	100	1
bin	101	1
bin	102	1
bin	103	1
bin	104	1
bin	105	2
bin	106	1
bin	107	1
bin	108	1
bin	109	2
bin	110	1
bin	111	1
bin	112	1
bin	113	2
bin	114	1
bin	115	1
bin	116	1
bin	117	3324
scalar SimphonyDHTNetwork.members[5] 	#packetsInTheNetwork 	2758
statistic SimphonyDHTNetwork.members[5] 	"packets statistics"
field count 3491
field mean 1370.4992838728
field stddev 797.04774293161
field sum 4784413
field sqrsum 8774179605
field min 0
field max 2757
attr type  int
bin	-INF	0
bin	-40	0
bin	-39	0
bin	-38	0
bin	-37	0
bin	-36	0
bin	-35	0
bin	-34	0
bin	-33	0
bin	-32	0
bin	-31	0
bin	-30	0
bin	-29	0
bin	-28	0
bin	-27	0
bin	-26	0
bin	-25	0
bin	-24	0
bin	-23	0
bin	-22	0
bin	-21	0
bin	-20	0
bin	-19	0
bin	-18	0
bin	-17	0
bin	-16	0
bin	-15	0
bin	-14	0
bin	-13	0
bin	-12	0
bin	-11	0
bin	-10	0
bin	-9	0
bin	-8	0
bin	-7	0
bin	-6	0
bin	-5	0
bin	-4	0
bin	-3	0
bin	-2	0
bin	-1	0
bin	0	1
bin	1	1
bin	2	2
bin	3	1
bin	4	1
bin	5	1
bin	6	2
bin	7	1
bin	8	1
bin	9	1
bin	10	2
bin	11	1
bin	12	1
bin	13	2
bin	14	1
bin	15	1
bin	16	1
bin	17	2
bin	18	1
bin	19	1
bin	20	1
bin	21	2
bin	22	1
bin	23	1
bin	24	1
bin	25	2
bin	26	1
bin	27	1
bin	28	1
bin	29	2
bin	30	1
bin	31	1
bin	32	2
bin	33	1
bin	34	1
bin	35	1
bin	36	1
bin	37	2
bin	38	1
bin	39	1
bin	40	1
bin	41	2
bin	42	1
bin	43	1
bin	44	1
bin	45	2
bin	46	1
bin	47	1
bin	48	1
bin	49	2
bin	50	1
bin	51	1
bin	52	2
bin	53	1
bin	54	1
bin	55	1
bin	56	1
bin	57	1
bin	58	2
bin	59	1
bin	60	1
bin	61	2
bin	62	1
bin	63	1
bin	64	1
bin	65	1
bin	66	1
bin	67	2
bin	68	1
bin	69	1
bin	70	2
bin	71	1
bin	72	1
bin	73	2
bin	74	1
bin	75	1
bin	76	2
bin	77	1
bin	78	1
bin	79	1
bin	80	2
bin	81	1
bin	82	1
bin	83	1
bin	84	2
bin	85	1
bin	86	1
bin	87	2
bin	88	1
bin	89	1
bin	90	1
bin	91	2
bin	92	2
bin	93	1
bin	94	2
bin	95	1
bin	96	1
bin	97	1
bin	98	2
bin	99	1
bin	100	1
bin	101	1
bin	102	2
bin	103	1
bin	104	1
bin	105	2
bin	106	1
bin	107	2
bin	108	1
bin	109	1
bin	110	2
bin	111	1
bin	112	1
bin	113	2
bin	114	1
bin	115	1
bin	116	1
bin	117	2
bin	118	1
bin	119	3339
scalar SimphonyDHTNetwork.members[6] 	#packetsInTheNetwork 	2587
statistic SimphonyDHTNetwork.members[6] 	"packets statistics"
field count 3242
field mean 1293.5111042566
field stddev 748.8878999774
field sum 4193563
field sqrsum 7242080341
field min 0
field max 2586
attr type  int
bin	-INF	0
bin	-39	0
bin	-38	0
bin	-37	0
bin	-36	0
bin	-35	0
bin	-34	0
bin	-33	0
bin	-32	0
bin	-31	0
bin	-30	0
bin	-29	0
bin	-28	0
bin	-27	0
bin	-26	0
bin	-25	0
bin	-24	0
bin	-23	0
bin	-22	0
bin	-21	0
bin	-20	0
bin	-19	0
bin	-18	0
bin	-17	0
bin	-16	0
bin	-15	0
bin	-14	0
bin	-13	0
bin	-12	0
bin	-11	0
bin	-10	0
bin	-9	0
bin	-8	0
bin	-7	0
bin	-6	0
bin	-5	0
bin	-4	0
bin	-3	0
bin	-2	0
bin	-1	0
bin	0	1
bin	1	2
bin	2	1
bin	3	1
bin	4	1
bin	5	2
bin	6	1
bin	7	1
bin	8	1
bin	9	2
bin	10	1
bin	11	1
bin	12	1
bin	13	2
bin	14	1
bin	15	1
bin	16	1
bin	17	2
bin	18	1
bin	19	1
bin	20	1
bin	21	1
bin	22	2
bin	23	1
bin	24	1
bin	25	2
bin	26	1
bin	27	1
bin	28	2
bin	29	1
bin	30	1
bin	31	2
bin	32	1
bin	33	1
bin	34	2
bin	35	1
bin	36	1
bin	37	1
bin	38	2
bin	39	1
bin	40	1
bin	41	1
bin	42	1
bin	43	2
bin	44	1
bin	45	1
bin	46	1
bin	47	2
bin	48	1
bin	49	1
bin	50	1
bin	51	2
bin	52	1
bin	53	1
bin	54	2
bin	55	1
bin	56	1
bin	57	2
bin	58	1
bin	59	2
bin	60	1
bin	61	1
bin	62	1
bin	63	1
bin	64	2
bin	65	1
bin	66	2
bin	67	1
bin	68	1
bin	69	2
bin	70	1
bin	71	1
bin	72	2
bin	73	1
bin	74	1
bin	75	1
bin	76	1
bin	77	1
bin	78	2
bin	79	1
bin	80	1
bin	81	1
bin	82	2
bin	83	1
bin	84	1
bin	85	1
bin	86	1
bin	87	2
bin	88	1
bin	89	1
bin	90	1
bin	91	2
bin	92	1
bin	93	1
bin	94	1
bin	95	1
bin	96	2
bin	97	1
bin	98	2
bin	99	2
bin	100	1
bin	101	2
bin	102	1
bin	103	1
bin	104	1
bin	105	2
bin	106	1
bin	107	1
bin	108	1
bin	109	2
bin	110	1
bin	111	1
bin	112	1
bin	113	2
bin	114	1
bin	115	1
bin	116	2
bin	117	3092
scalar SimphonyDHTNetwork.members[7] 	#packetsInTheNetwork 	2385
statistic SimphonyDHTNetwork.members[7] 	"packets statistics"
field count 3061
field mean 1201.053903953
field stddev 688.87708383709
field sum 3676426
field sqrsum 5867713808
field min 0
field max 2384
attr type  int
bin	-INF	0
bin	-40	0
bin	-39	0
bin	-38	0
bin	-37	0
bin	-36	0
bin	-35	0
bin	-34	0
bin	-33	0
bin	-32	0
bin	-31	0
bin	-30	0
bin	-29	0
bin	-28	0
bin	-27	0
bin	-26	0
bin	-25	0
bin	-24	0
bin	-23	0
bin	-22	0
bin	-21	0
bin	-20	0
bin	-19	0
bin	-18	0
bin	-17	0
bin	-16	0
bin	-15	0
bin	-14	0
bin	-13	0
bin	-12	0
bin	-11	0
bin	-10	0
bin	-9	0
bin	-8	0
bin	-7	0
bin	-6	0
bin	-5	0
bin	-4	0
bin	-3	0
bin	-2	0
bin	-1	0
bin	0	1
bin	1	1
bin	2	2
bin	3	1
bin	4	1
bin	5	1
bin	6	2
bin	7	1
bin	8	1
bin	9	1
bin	10	2
bin	11	1
bin	12	1
bin	13	1
bin	14	2
bin	15	1
bin	16	1
bin	17	1
bin	18	2
bin	19	1
bin	20	1
bin	21	2
bin	22	1
bin	23	1
bin	24	1
bin	25	1
bin	26	2
bin	27	1
bin	28	1
bin	29	1
bin	30	2
bin	31	1
bin	32	1
bin	33	1
bin	34	1
bin	35	2
bin	36	1
bin	37	1
bin	38	2
bin	39	1
bin	40	1
bin	41	1
bin	42	2
bin	43	1
bin	44	1
bin	45	1
bin	46	2
bin	47	1
bin	48	1
bin	49	1
bin	50	1
bin	51	2
bin	52	1
bin	53	1
bin	54	1
bin	55	2
bin	56	1
bin	57	1
bin	58	2
bin	59	1
bin	60	1
bin	61	1
bin	62	2
bin	63	1
bin	64	1
bin	65	1
bin	66	1
bin	67	2
bin	68	1
bin	69	1
bin	70	2
bin	71	1
bin	72	1
bin	73	2
bin	74	1
bin	75	1
bin	76	1
bin	77	2
bin	78	1
bin	79	1
bin	80	1
bin	81	1
bin	82	2
bin	83	1
bin	84	1
bin	85	1
bin	86	2
bin	87	1
bin	88	1
bin	89	1
bin	90	2
bin	91	1
bin	92	1
bin	93	1
bin	94	2
bin	95	1
bin	96	1
bin	97	2
bin	98	1
bin	99	1
bin	100	1
bin	101	2
bin	102	1
bin	103	1
bin	104	1
bin	105	2
bin	106	1
bin	107	1
bin	108	1
bin	109	2
bin	110	1
bin	111	1
bin	112	1
bin	113	2
bin	114	1
bin	115	1
bin	116	1
bin	117	2
bin	118	1
bin	119	2912
scalar SimphonyDHTNetwork.members[8] 	#packetsInTheNetwork 	1636
statistic SimphonyDHTNetwork.members[8] 	"packets statistics"
field count 2091
field mean 817.96317551411
field stddev 472.0012672133
field sum 1710361
field sqrsum 1864633375
field min 0
field max 1635
attr type  int
bin	-INF	0
bin	-39	0
bin	-38	0
bin	-37	0
bin	-36	0
bin	-35	0
bin	-34	0
bin	-33	0
bin	-32	0
bin	-31	0
bin	-30	0
bin	-29	0
bin	-28	0
bin	-27	0
bin	-26	0
bin	-25	0
bin	-24	0
bin	-23	0
bin	-22	0
bin	-21	0
bin	-20	0
bin	-19	0
bin	-18	0
bin	-17	0
bin	-16	0
bin	-15	0
bin	-14	0
bin	-13	0
bin	-12	0
bin	-11	0
bin	-10	0
bin	-9	0
bin	-8	0
bin	-7	0
bin	-6	0
bin	-5	0
bin	-4	0
bin	-3	0
bin	-2	0
bin	-1	0
bin	0	1
bin	1	2
bin	2	1
bin	3	1
bin	4	1
bin	5	2
bin	6	1
bin	7	1
bin	8	1
bin	9	2
bin	10	1
bin	11	1
bin	12	1
bin	13	2
bin	14	1
bin	15	1
bin	16	1
bin	17	2
bin	18	1
bin	19	1
bin	20	1
bin	21	1
bin	22	2
bin	23	1
bin	24	1
bin	25	2
bin	26	1
bin	27	2
bin	28	1
bin	29	1
bin	30	2
bin	31	1
bin	32	1
bin	33	1
bin	34	2
bin	35	1
bin	36	1
bin	37	2
bin	38	1
bin	39	1
bin	40	1
bin	41	2
bin	42	1
bin	43	1
bin	44	1
bin	45	2
bin	46	1
bin	47	1
bin	48	2
bin	49	1
bin	50	1
bin	51	2
bin	52	1
bin	53	1
bin	54	1
bin	55	2
bin	56	1
bin	57	1
bin	58	2
bin	59	1
bin	60	1
bin	61	1
bin	62	2
bin	63	1
bin	64	1
bin	65	1
bin	66	1
bin	67	2
bin	68	1
bin	69	1
bin	70	1
bin	71	2
bin	72	1
bin	73	1
bin	74	2
bin	75	1
bin	76	1
bin	77	1
bin	78	1
bin	79	2
bin	80	1
bin	81	1
bin	82	2
bin	83	1
bin	84	1
bin	85	2
bin	86	1
bin	87	1
bin	88	2
bin	89	1
bin	90	1
bin	91	1
bin	92	2
bin	93	1
bin	94	1
bin	95	2
bin	96	1
bin	97	1
bin	98	2
bin	99	1
bin	100	1
bin	101	1
bin	102	1
bin	103	2
bin	104	1
bin	105	1
bin	106	2
bin	107	1
bin	108	1
bin	109	1
bin	110	2
bin	111	1
bin	112	1
bin	113	2
bin	114	1
bin	115	1
bin	116	1
bin	117	1942
scalar SimphonyDHTNetwork.members[9] 	#packetsInTheNetwork 	1349
statistic SimphonyDHTNetwork.members[9] 	"packets statistics"
field count 1690
field mean 675.29289940828
field stddev 391.2149041794
field sum 1141245
field sqrsum 1029174577
field min 0
field max 1348
attr type  int
bin	-INF	0
bin	-40	0
bin	-39	0
bin	-38	0
bin	-37	0
bin	-36	0
bin	-35	0
bin	-34	0
bin	-33	0
bin	-32	0
bin	-31	0
bin	-30	0
bin	-29	0
bin	-28	0
bin	-27	0
bin	-26	0
bin	-25	0
bin	-24	0
bin	-23	0
bin	-22	0
bin	-21	0
bin	-20	0
bin	-19	0
bin	-18	0
bin	-17	0
bin	-16	0
bin	-15	0
bin	-14	0
bin	-13	0
bin	-12	0
bin	-11	0
bin	-10	0
bin	-9	0
bin	-8	0
bin	-7	0
bin	-6	0
bin	-5	0
bin	-4	0
bin	-3	0
bin	-2	0
bin	-1	0
bin	0	1
bin	1	1
bin	2	2
bin	3	1
bin	4	1
bin	5	2
bin	6	1
bin	7	1
bin	8	1
bin	9	2
bin	10	1
bin	11	1
bin	12	2
bin	13	1
bin	14	1
bin	15	2
bin	16	1
bin	17	1
bin	18	2
bin	19	1
bin	20	1
bin	21	1
bin	22	1
bin	23	1
bin	24	2
bin	25	1
bin	26	1
bin	27	1
bin	28	2
bin	29	1
bin	30	1
bin	31	1
bin	32	1
bin	33	2
bin	34	1
bin	35	1
bin	36	1
bin	37	2
bin	38	1
bin	39	1
bin	40	1
bin	41	2
bin	42	1
bin	43	1
bin	44	1
bin	45	2
bin	46	1
bin	47	1
bin	48	1
bin	49	1
bin	50	2
bin	51	1
bin	52	1
bin	53	1
bin	54	2
bin	55	1
bin	56	2
bin	57	1
bin	58	1
bin	59	1
bin	60	2
bin	61	1
bin	62	1
bin	63	1
bin	64	2
bin	65	1
bin	66	1
bin	67	1
bin	68	2
bin	69	1
bin	70	1
bin	71	2
bin	72	1
bin	73	1
bin	74	1
bin	75	2
bin	76	1
bin	77	1
bin	78	1
bin	79	2
bin	80	1
bin	81	1
bin	82	1
bin	83	2
bin	84	1
bin	85	1
bin	86	1
bin	87	2
bin	88	1
bin	89	1
bin	90	2
bin	91	1
bin	92	1
bin	93	1
bin	94	1
bin	95	2
bin	96	1
bin	97	1
bin	98	1
bin	99	2
bin	100	1
bin	101	1
bin	102	1
bin	103	2
bin	104	1
bin	105	2
bin	106	1
bin	107	1
bin	108	1
bin	109	2
bin	110	1
bin	111	1
bin	112	1
bin	113	1
bin	114	2
bin	115	1
bin	116	1
bin	117	1
bin	118	1
bin	119	1541
scalar SimphonyDHTNetwork.members[10] 	#packetsInTheNetwork 	1600
statistic SimphonyDHTNetwork.members[10] 	"packets statistics"
field count 2024
field mean 805.18922924901
field stddev 461.69772490987
field sum 1629703
field sqrsum 1743451671
field min 0
field max 1599
attr type  int
bin	-INF	0
bin	-40	0
bin	-39	0
bin	-38	0
bin	-37	0
bin	-36	0
bin	-35	0
bin	-34	0
bin	-33	0
bin	-32	0
bin	-31	0
bin	-30	0
bin	-29	0
bin	-28	0
bin	-27	0
bin	-26	0
bin	-25	0
bin	-24	0
bin	-23	0
bin	-22	0
bin	-21	0
bin	-20	0
bin	-19	0
bin	-18	0
bin	-17	0
bin	-16	0
bin	-15	0
bin	-14	0
bin	-13	0
bin	-12	0
bin	-11	0
bin	-10	0
bin	-9	0
bin	-8	0
bin	-7	0
bin	-6	0
bin	-5	0
bin	-4	0
bin	-3	0
bin	-2	0
bin	-1	0
bin	0	1
bin	1	1
bin	2	1
bin	3	2
bin	4	1
bin	5	1
bin	6	2
bin	7	1
bin	8	1
bin	9	2
bin	10	1
bin	11	1
bin	12	1
bin	13	2
bin	14	1
bin	15	1
bin	16	2
bin	17	1
bin	18	1
bin	19	1
bin	20	2
bin	21	1
bin	22	1
bin	23	2
bin	24	1
bin	25	1
bin	26	2
bin	27	1
bin	28	1
bin	29	1
bin	30	2
bin	31	1
bin	32	1
bin	33	1
bin	34	1
bin	35	2
bin	36	1
bin	37	1
bin	38	1
bin	39	2
bin	40	1
bin	41	1
bin	42	1
bin	43	2
bin	44	1
bin	45	1
bin	46	2
bin	47	1
bin	48	1
bin	49	1
bin	50	1
bin	51	2
bin	52	1
bin	53	1
bin	54	1
bin	55	2
bin	56	1
bin	57	1
bin	58	1
bin	59	2
bin	60	1
bin	61	1
bin	62	1
bin	63	2
bin	64	1
bin	65	1
bin	66	1
bin	67	2
bin	68	1
bin	69	1
bin	70	1
bin	71	2
bin	72	1
bin	73	1
bin	74	1
bin	75	2
bin	76	1
bin	77	1
bin	78	1
bin	79	1
bin	80	2
bin	81	1
bin	82	1
bin	83	1
bin	84	2
bin	85	1
bin	86	1
bin	87	1
bin	88	1
bin	89	2
bin	90	1
bin	91	1
bin	92	1
bin	93	1
bin	94	1
bin	95	1
bin	96	1
bin	97	2
bin	98	1
bin	99	1
bin	100	2
bin	101	1
bin	102	1
bin	103	1
bin	104	1
bin	105	2
bin	106	1
bin	107	1
bin	108	1
bin	109	2
bin	110	1
bin	111	1
bin	112	1
bin	113	2
bin	114	1
bin	115	1
bin	116	1
bin	117	2
bin	118	1
bin	119	1876
scalar SimphonyDHTNetwork.members[11] 	#packetsInTheNetwork 	1369
statistic SimphonyDHTNetwork.members[11] 	"packets statistics"
field count 1768
field mean 682.88857466063
field stddev 394.42135235946
field sum 1207347
field sqrsum 1099372487
field min 0
field max 1368
attr type  int
bin	-INF	0
bin	-39	0
bin	-38	0
bin	-37	0
bin	-36	0
bin	-35	0
bin	-34	0
bin	-33	0
bin	-32	0
bin	-31	0
bin	-30	0
bin	-29	0
bin	-28	0
bin	-27	0
bin	-26	0
bin	-25	0
bin	-24	0
bin	-23	0
bin	-22	0
bin	-21	0
bin	-20	0
bin	-19	0
bin	-18	0
bin	-17	0
bin	-16	0
bin	-15	0
bin	-14	0
bin	-13	0
bin	-12	0
bin	-11	0
bin	-10	0
bin	-9	0
bin	-8	0
bin	-7	0
bin	-6	0
bin	-5	0
bin	-4	0
bin	-3	0
bin	-2	0
bin	-1	0
bin	0	1
bin	1	1
bin	2	2
bin	3	1
bin	4	1
bin	5	1
bin	6	2
bin	7	1
bin	8	1
bin	9	1
bin	10	1
bin	11	2
bin	12	1
bin	13	1
bin	14	2
bin	15	1
bin	16	1
bin	17	1
bin	18	2
bin	19	1
bin	20	1
bin	21	2
bin	22	1
bin	23	1
bin	24	2
bin	25	1
bin	26	1
bin	27	1
bin	28	2
bin	29	1
bin	30	1
bin	31	1
bin	32	2
bin	33	1
bin	34	1
bin	35	2
bin	36	1
bin	37	1
bin	38	2
bin	39	1
bin	40	1
bin	41	1
bin	42	2
bin	43	1
bin	44	1
bin	45	1
bin	46	1
bin	47	1
bin	48	1
bin	49	2
bin	50	1
bin	51	1
bin	52	1
bin	53	2
bin	54	1
bin	55	1
bin	56	1
bin	57	1
bin	58	2
bin	59	1
bin	60	1
bin	61	2
bin	62	1
bin	63	1
bin	64	1
bin	65	2
bin	66	1
bin	67	1
bin	68	1
bin	69	2
bin	70	1
bin	71	1
bin	72	2
bin	73	1
bin	74	1
bin	75	2
bin	76	1
bin	77	1
bin	78	2
bin	79	1
bin	80	1
bin	81	2
bin	82	1
bin	83	1
bin	84	1
bin	85	1
bin	86	2
bin	87	2
bin	88	1
bin	89	2
bin	90	1
bin	91	1
bin	92	1
bin	93	2
bin	94	1
bin	95	1
bin	96	1
bin	97	2
bin	98	1
bin	99	1
bin	100	1
bin	101	2
bin	102	1
bin	103	2
bin	104	1
bin	105	1
bin	106	2
bin	107	1
bin	108	1
bin	109	2
bin	110	1
bin	111	1
bin	112	2
bin	113	1
bin	114	1
bin	115	1
bin	116	2
bin	117	1618
scalar SimphonyDHTNetwork.members[12] 	#packetsInTheNetwork 	1361
statistic SimphonyDHTNetwork.members[12] 	"packets statistics"
field count 1656
field mean 673.03985507246
field stddev 395.66906078359
field sum 1114554
field sqrsum 1009236142
field min 0
field max 1360
attr type  int
bin	-INF	0
bin	-39	0
bin	-38	0
bin	-37	0
bin	-36	0
bin	-35	0
bin	-34	0
bin	-33	0
bin	-32	0
bin	-31	0
bin	-30	0
bin	-29	0
bin	-28	0
bin	-27	0
bin	-26	0
bin	-25	0
bin	-24	0
bin	-23	0
bin	-22	0
bin	-21	0
bin	-20	0
bin	-19	0
bin	-18	0
bin	-17	0
bin	-16	0
bin	-15	0
bin	-14	0
bin	-13	0
bin	-12	0
bin	-11	0
bin	-10	0
bin	-9	0
bin	-8	0
bin	-7	0
bin	-6	0
bin	-5	0
bin	-4	0
bin	-3	0
bin	-2	0
bin	-1	0
bin	0	1
bin	1	1
bin	2	2
bin	3	1
bin	4	1
bin	5	2
bin	6	1
bin	7	1
bin	8	2
bin	9	1
bin	10	1
bin	11	1
bin	12	2
bin	13	1
bin	14	1
bin	15	1
bin	16	2
bin	17	1
bin	18	1
bin	19	1
bin	20	2
bin	21	1
bin	22	1
bin	23	1
bin	24	2
bin	25	1
bin	26	1
bin	27	1
bin	28	2
bin	29	1
bin	30	1
bin	31	1
bin	32	2
bin	33	1
bin	34	1
bin	35	2
bin	36	1
bin	37	1
bin	38	1
bin	39	2
bin	40	1
bin	41	1
bin	42	2
bin	43	1
bin	44	1
bin	45	2
bin	46	1
bin	47	1
bin	48	1
bin	49	1
bin	50	1
bin	51	2
bin	52	1
bin	53	1
bin	54	1
bin	55	1
bin	56	2
bin	57	1
bin	58	1
bin	59	2
bin	60	1
bin	61	1
bin	62	1
bin	63	2
bin	64	1
bin	65	1
bin	66	1
bin	67	1
bin	68	2
bin	69	1
bin	70	1
bin	71	2
bin	72	1
bin	73	1
bin	74	1
bin	75	1
bin	76	2
bin	77	1
bin	78	2
bin	79	2
bin	80	1
bin	81	1
bin	82	1
bin	83	2
bin	84	1
bin	85	1
bin	86	2
bin	87	1
bin	88	1
bin	89	2
bin	90	1
bin	91	1
bin	92	2
bin	93	1
bin	94	1
bin	95	1
bin	96	1
bin	97	1
bin	98	1
bin	99	1
bin	100	1
bin	101	2
bin	102	1
bin	103	1
bin	104	2
bin	105	1
bin	106	1
bin	107	1
bin	108	1
bin	109	1
bin	110	1
bin	111	2
bin	112	1
bin	113	1
bin	114	1
bin	115	2
bin	116	1
bin	117	1509
scalar SimphonyDHTNetwork.members[13] 	#packetsInTheNetwork 	1673
statistic SimphonyDHTNetwork.members[13] 	"packets statistics"
field count 2180
field mean 834.21972477064
field stddev 481.47193606568
field sum 1818599
field sqrsum 2022236533
field min 0
field max 1672
attr type  int
bin	-INF	0
bin	-39	0
bin	-38	0
bin	-37	0
bin	-36	0
bin	-35	0
bin	-34	0
bin	-33	0
bin	-32	0
bin	-31	0
bin	-30	0
bin	-29	0
bin	-28	0
bin	-27	0
bin	-26	0
bin	-25	0
bin	-24	0
bin	-23	0
bin	-22	0
bin	-21	0
bin	-20	0
bin	-19	0
bin	-18	0
bin	-17	0
bin	-16	0
bin	-15	0
bin	-14	0
bin	-13	0
bin	-12	0
bin	-11	0
bin	-10	0
bin	-9	0
bin	-8	0
bin	-7	0
bin	-6	0
bin	-5	0
bin	-4	0
bin	-3	0
bin	-2	0
bin	-1	0
bin	0	1
bin	1	2
bin	2	1
bin	3	1
bin	4	1
bin	5	1
bin	6	2
bin	7	1
bin	8	1
bin	9	1
bin	10	2
bin	11	1
bin	12	1
bin	13	1
bin	14	1
bin	15	2
bin	16	1
bin	17	1
bin	18	1
bin	19	2
bin	20	1
bin	21	1
bin	22	1
bin	23	1
bin	24	2
bin	25	1
bin	26	1
bin	27	1
bin	28	2
bin	29	1
bin	30	1
bin	31	1
bin	32	2
bin	33	1
bin	34	1
bin	35	1
bin	36	1
bin	37	2
bin	38	2
bin	39	1
bin	40	2
bin	41	1
bin	42	1
bin	43	1
bin	44	2
bin	45	1
bin	46	1
bin	47	1
bin	48	2
bin	49	1
bin	50	1
bin	51	1
bin	52	2
bin	53	1
bin	54	1
bin	55	2
bin	56	1
bin	57	1
bin	58	2
bin	59	1
bin	60	1
bin	61	2
bin	62	1
bin	63	1
bin	64	2
bin	65	1
bin	66	1
bin	67	1
bin	68	2
bin	69	1
bin	70	1
bin	71	2
bin	72	1
bin	73	1
bin	74	2
bin	75	1
bin	76	2
bin	77	1
bin	78	1
bin	79	1
bin	80	2
bin	81	1
bin	82	1
bin	83	2
bin	84	1
bin	85	2
bin	86	1
bin	87	1
bin	88	2
bin	89	1
bin	90	1
bin	91	2
bin	92	1
bin	93	1
bin	94	2
bin	95	1
bin	96	2
bin	97	1
bin	98	1
bin	99	1
bin	100	1
bin	101	1
bin	102	2
bin	103	1
bin	104	1
bin	105	2
bin	106	1
bin	107	1
bin	108	2
bin	109	1
bin	110	1
bin	111	2
bin	112	1
bin	113	1
bin	114	2
bin	115	1
bin	116	2030
scalar SimphonyDHTNetwork.members[14] 	#packetsInTheNetwork 	1104
statistic SimphonyDHTNetwork.members[14] 	"packets statistics"
field count 1396
field mean 553.53796561605
field stddev 319.3463967829
field sum 772739
field sqrsum 570005433
field min 0
field max 1103
attr type  int
bin	-INF	0
bin	-38	0
bin	-37	0
bin	-36	0
bin	-35	0
bin	-34	0
bin	-33	0
bin	-32	0
bin	-31	0
bin	-30	0
bin	-29	0
bin	-28	0
bin	-27	0
bin	-26	0
bin	-25	0
bin	-24	0
bin	-23	0
bin	-22	0
bin	-21	0
bin	-20	0
bin	-19	0
bin	-18	0
bin	-17	0
bin	-16	0
bin	-15	0
bin	-14	0
bin	-13	0
bin	-12	0
bin	-11	0
bin	-10	0
bin	-9	0
bin	-8	0
bin	-7	0
bin	-6	0
bin	-5	0
bin	-4	0
bin	-3	0
bin	-2	0
bin	-1	0
bin	0	1
bin	1	2
bin	2	1
bin	3	2
bin	4	1
bin	5	1
bin	6	1
bin	7	1
bin	8	1
bin	9	2
bin	10	1
bin	11	1
bin	12	2
bin	13	1
bin	14	1
bin	15	1
bin	16	2
bin	17	1
bin	18	1
bin	19	2
bin	20	1
bin	21	1
bin	22	2
bin	23	1
bin	24	1
bin	25	2
bin	26	1
bin	27	1
bin	28	2
bin	29	1
bin	30	1
bin	31	2
bin	32	1
bin	33	1
bin	34	2
bin	35	1
bin	36	2
bin	37	2
bin	38	1
bin	39	2
bin	40	1
bin	41	1
bin	42	2
bin	43	1
bin	44	1
bin	45	1
bin	46	2
bin	47	1
bin	48	1
bin	49	1
bin	50	1
bin	51	1
bin	52	1
bin	53	2
bin	54	1
bin	55	1
bin	56	1
bin	57	1
bin	58	1
bin	59	1
bin	60	2
bin	61	1
bin	62	1
bin	63	2
bin	64	1
bin	65	2
bin	66	1
bin	67	1
bin	68	2
bin	69	1
bin	70	1
bin	71	2
bin	72	1
bin	73	1
bin	74	1
bin	75	2
bin	76	1
bin	77	1
bin	78	2
bin	79	1
bin	80	1
bin	81	2
bin	82	1
bin	83	1
bin	84	1
bin	85	2
bin	86	1
bin	87	1
bin	88	1
bin	89	1
bin	90	1
bin	91	2
bin	92	1
bin	93	1
bin	94	1
bin	95	2
bin	96	1
bin	97	1
bin	98	2
bin	99	1
bin	100	1
bin	101	1
bin	102	1
bin	103	1
bin	104	2
bin	105	1
bin	106	1
bin	107	1
bin	108	2
bin	109	1
bin	110	1
bin	111	1
bin	112	2
bin	113	1
bin	114	1250
scalar SimphonyDHTNetwork.members[15] 	#packetsInTheNetwork 	1219
statistic SimphonyDHTNetwork.members[15] 	"packets statistics"
field count 1558
field mean 605.55648267009
field stddev 350.10251781412
field sum 943457
field sqrsum 762160753
field min 0
field max 1218
attr type  int
bin	-INF	0
bin	-39	0
bin	-38	0
bin	-37	0
bin	-36	0
bin	-35	0
bin	-34	0
bin	-33	0
bin	-32	0
bin	-31	0
bin	-30	0
bin	-29	0
bin	-28	0
bin	-27	0
bin	-26	0
bin	-25	0
bin	-24	0
bin	-23	0
bin	-22	0
bin	-21	0
bin	-20	0
bin	-19	0
bin	-18	0
bin	-17	0
bin	-16	0
bin	-15	0
bin	-14	0
bin	-13	0
bin	-12	0
bin	-11	0
bin	-10	0
bin	-9	0
bin	-8	0
bin	-7	0
bin	-6	0
bin	-5	0
bin	-4	0
bin	-3	0
bin	-2	0
bin	-1	0
bin	0	1
bin	1	1
bin	2	1
bin	3	1
bin	4	1
bin	5	1
bin	6	2
bin	7	1
bin	8	1
bin	9	2
bin	10	1
bin	11	1
bin	12	2
bin	13	1
bin	14	1
bin	15	2
bin	16	1
bin	17	1
bin	18	1
bin	19	2
bin	20	1
bin	21	1
bin	22	1
bin	23	2
bin	24	1
bin	25	1
bin	26	2
bin	27	1
bin	28	1
bin	29	1
bin	30	2
bin	31	1
bin	32	1
bin	33	2
bin	34	1
bin	35	1
bin	36	2
bin	37	1
bin	38	1
bin	39	2
bin	40	1
bin	41	1
bin	42	2
bin	43	1
bin	44	1
bin	45	2
bin	46	1
bin	47	1
bin	48	2
bin	49	1
bin	50	1
bin	51	2
bin	52	1
bin	53	1
bin	54	2
bin	55	1
bin	56	1
bin	57	2
bin	58	1
bin	59	1
bin	60	1
bin	61	2
bin	62	1
bin	63	1
bin	64	2
bin	65	1
bin	66	1
bin	67	2
bin	68	1
bin	69	1
bin	70	1
bin	71	1
bin	72	2
bin	73	1
bin	74	1
bin	75	1
bin	76	1
bin	77	2
bin	78	1
bin	79	1
bin	80	1
bin	81	2
bin	82	1
bin	83	2
bin	84	1
bin	85	1
bin	86	2
bin	87	1
bin	88	1
bin	89	1
bin	90	1
bin	91	1
bin	92	2
bin	93	1
bin	94	1
bin	95	1
bin	96	2
bin	97	1
bin	98	1
bin	99	1
bin	100	1
bin	101	1
bin	102	1
bin	103	1
bin	104	1
bin	105	2
bin	106	1
bin	107	1
bin	108	2
bin	109	1
bin	110	1
bin	111	2
bin	112	1
bin	113	1
bin	114	2
bin	115	1
bin	116	1411
scalar SimphonyDHTNetwork.members[16] 	#packetsInTheNetwork 	911
statistic SimphonyDHTNetwork.members[16] 	"packets statistics"
field count 1144
field mean 457.56293706294
field stddev 263.0086198078
field sum 523452
field sqrsum 318577584
field min 0
field max 910
attr type  int
bin	-INF	0
bin	-40	0
bin	-39	0
bin	-38	0
bin	-37	0
bin	-36	0
bin	-35	0
bin	-34	0
bin	-33	0
bin	-32	0
bin	-31	0
bin	-30	0
bin	-29	0
bin	-28	0
bin	-27	0
bin	-26	0
bin	-25	0
bin	-24	0
bin	-23	0
bin	-22	0
bin	-21	0
bin	-20	0
bin	-19	0
bin	-18	0
bin	-17	0
bin	-16	0
bin	-15	0
bin	-14	0
bin	-13	0
bin	-12	0
bin	-11	0
bin	-10	0
bin	-9	0
bin	-8	0
bin	-7	0
bin	-6	0
bin	-5	0
bin	-4	0
bin	-3	0
bin	-2	0
bin	-1	0
bin	0	1
bin	1	2
bin	2	1
bin	3	1
bin	4	2
bin	5	1
bin	6	1
bin	7	2
bin	8	1
bin	9	1
bin	10	2
bin	11	1
bin	12	1
bin	13	1
bin	14	2
bin	15	1
bin	16	1
bin	17	1
bin	18	1
bin	19	2
bin	20	1
bin	21	1
bin	22	2
bin	23	1
bin	24	1
bin	25	1
bin	26	2
bin	27	1
bin	28	1
bin	29	1
bin	30	2
bin	31	1
bin	32	1
bin	33	1
bin	34	1
bin	35	1
bin	36	1
bin	37	2
bin	38	1
bin	39	1
bin	40	2
bin	41	1
bin	42	1
bin	43	2
bin	44	1
bin	45	1
bin	46	1
bin	47	1
bin	48	2
bin	49	1
bin	50	1
bin	51	1
bin	52	1
bin	53	1
bin	54	2
bin	55	1
bin	56	1
bin	57	1
bin	58	2
bin	59	1
bin	60	1
bin	61	1
bin	62	2
bin	63	1
bin	64	1
bin	65	1
bin	66	2
bin	67	1
bin	68	1
bin	69	1
bin	70	1
bin	71	2
bin	72	1
bin	73	1
bin	74	1
bin	75	1
bin	76	2
bin	77	1
bin	78	1
bin	79	2
bin	80	1
bin	81	1
bin	82	2
bin	83	1
bin	84	1
bin	85	1
bin	86	2
bin	87	1
bin	88	1
bin	89	2
bin	90	1
bin	91	1
bin	92	2
bin	93	1
bin	94	1
bin	95	1
bin	96	1
bin	97	1
bin	98	2
bin	99	1
bin	100	1
bin	101	1
bin	102	1
bin	103	2
bin	104	1
bin	105	1
bin	106	1
bin	107	1
bin	108	1
bin	109	2
bin	110	1
bin	111	2
bin	112	1
bin	113	1
bin	114	2
bin	115	1
bin	116	1
bin	117	1
bin	118	2
bin	119	995
scalar SimphonyDHTNetwork.members[17] 	#packetsInTheNetwork 	1734
statistic SimphonyDHTNetwork.members[17] 	"packets statistics"
field count 2270
field mean 871.459030837
field stddev 499.95059151643
field sum 1978212
field sqrsum 2291068610
field min 0
field max 1733
attr type  int
bin	-INF	0
bin	-39	0
bin	-38	0
bin	-37	0
bin	-36	0
bin	-35	0
bin	-34	0
bin	-33	0
bin	-32	0
bin	-31	0
bin	-30	0
bin	-29	0
bin	-28	0
bin	-27	0
bin	-26	0
bin	-25	0
bin	-24	0
bin	-23	0
bin	-22	0
bin	-21	0
bin	-20	0
bin	-19	0
bin	-18	0
bin	-17	0
bin	-16	0
bin	-15	0
bin	-14	0
bin	-13	0
bin	-12	0
bin	-11	0
bin	-10	0
bin	-9	0
bin	-8	0
bin	-7	0
bin	-6	0
bin	-5	0
bin	-4	0
bin	-3	0
bin	-2	0
bin	-1	0
bin	0	1
bin	1	1
bin	2	2
bin	3	1
bin	4	1
bin	5	1
bin	6	1
bin	7	1
bin	8	1
bin	9	2
bin	10	1
bin	11	1
bin	12	2
bin	13	1
bin	14	1
bin	15	1
bin	16	1
bin	17	1
bin	18	1
bin	19	1
bin	20	1
bin	21	1
bin	22	2
bin	23	1
bin	24	1
bin	25	1
bin	26	2
bin	27	1
bin	28	2
bin	29	1
bin	30	1
bin	31	2
bin	32	1
bin	33	1
bin	34	2
bin	35	1
bin	36	1
bin	37	1
bin	38	2
bin	39	1
bin	40	1
bin	41	1
bin	42	1
bin	43	2
bin	44	2
bin	45	1
bin	46	2
bin	47	1
bin	48	1
bin	49	1
bin	50	2
bin	51	1
bin	52	1
bin	53	1
bin	54	2
bin	55	1
bin	56	1
bin	57	1
bin	58	2
bin	59	1
bin	60	1
bin	61	2
bin	62	1
bin	63	1
bin	64	1
bin	65	2
bin	66	1
bin	67	1
bin	68	1
bin	69	2
bin	70	1
bin	71	2
bin	72	1
bin	73	1
bin	74	2
bin	75	1
bin	76	1
bin	77	2
bin	78	1
bin	79	1
bin	80	2
bin	81	1
bin	82	1
bin	83	2
bin	84	1
bin	85	1
bin	86	2
bin	87	1
bin	88	1
bin	89	2
bin	90	1
bin	91	1
bin	92	2
bin	93	1
bin	94	1
bin	95	1
bin	96	2
bin	97	1
bin	98	1
bin	99	2
bin	100	1
bin	101	1
bin	102	2
bin	103	1
bin	104	1
bin	105	2
bin	106	1
bin	107	1
bin	108	2
bin	109	1
bin	110	1
bin	111	1
bin	112	2
bin	113	1
bin	114	1
bin	115	1
bin	116	1
bin	117	2121
scalar SimphonyDHTNetwork.members[18] 	#packetsInTheNetwork 	1098
statistic SimphonyDHTNetwork.members[18] 	"packets statistics"
field count 1429
field mean 551.12946116165
field stddev 316.66120706965
field sum 787564
field sqrsum 577241452
field min 0
field max 1097
attr type  int
bin	-INF	0
bin	-39	0
bin	-38	0
bin	-37	0
bin	-36	0
bin	-35	0
bin	-34	0
bin	-33	0
bin	-32	0
bin	-31	0
bin	-30	0
bin	-29	0
bin	-28	0
bin	-27	0
bin	-26	0
bin	-25	0
bin	-24	0
bin	-23	0
bin	-22	0
bin	-21	0
bin	-20	0
bin	-19	0
bin	-18	0
bin	-17	0
bin	-16	0
bin	-15	0
bin	-14	0
bin	-13	0
bin	-12	0
bin	-11	0
bin	-10	0
bin	-9	0
bin	-8	0
bin	-7	0
bin	-6	0
bin	-5	0
bin	-4	0
bin	-3	0
bin	-2	0
bin	-1	0
bin	0	1
bin	1	2
bin	2	1
bin	3	1
bin	4	1
bin	5	1
bin	6	1
bin	7	1
bin	8	1
bin	9	2
bin	10	1
bin	11	1
bin	12	2
bin	13	1
bin	14	1
bin	15	2
bin	16	1
bin	17	1
bin	18	2
bin	19	1
bin	20	1
bin	21	2
bin	22	1
bin	23	1
bin	24	1
bin	25	2
bin	26	1
bin	27	1
bin	28	2
bin	29	1
bin	30	1
bin	31	2
bin	32	1
bin	33	1
bin	34	2
bin	35	1
bin	36	1
bin	37	2
bin	38	1
bin	39	1
bin	40	2
bin	41	1
bin	42	1
bin	43	1
bin	44	2
bin	45	1
bin	46	1
bin	47	1
bin	48	2
bin	49	1
bin	50	1
bin	51	1
bin	52	1
bin	53	1
bin	54	2
bin	55	1
bin	56	1
bin	57	1
bin	58	1
bin	59	1
bin	60	1
bin	61	2
bin	62	1
bin	63	2
bin	64	2
bin	65	1
bin	66	2
bin	67	1
bin	68	1
bin	69	1
bin	70	2
bin	71	1
bin	72	1
bin	73	2
bin	74	1
bin	75	2
bin	76	1
bin	77	1
bin	78	2
bin	79	1
bin	80	1
bin	81	2
bin	82	1
bin	83	1
bin	84	2
bin	85	1
bin	86	1
bin	87	2
bin	88	1
bin	89	1
bin	90	1
bin	91	1
bin	92	1
bin	93	1
bin	94	1
bin	95	2
bin	96	1
bin	97	2
bin	98	1
bin	99	1
bin	100	1
bin	101	2
bin	102	1
bin	103	1
bin	104	1
bin	105	2
bin	106	1
bin	107	1
bin	108	1
bin	109	2
bin	110	1
bin	111	1
bin	112	2
bin	113	1
bin	114	1
bin	115	1
bin	116	1281
scalar SimphonyDHTNetwork.members[19] 	#packetsInTheNetwork 	768
statistic SimphonyDHTNetwork.members[19] 	"packets statistics"
field count 968
field mean 382.06921487603
field stddev 221.60460321968
field sum 369843
field sqrsum 188793641
field min 0
field max 767
attr type  int
bin	-INF	0
bin	-40	0
bin	-39	0
bin	-38	0
bin	-37	0
bin	-36	0
bin	-35	0
bin	-34	0
bin	-33	0
bin	-32	0
bin	-31	0
bin	-30	0
bin	-29	0
bin	-28	0
bin	-27	0
bin	-26	0
bin	-25	0
bin	-24	0
bin	-23	0
bin	-22	0
bin	-21	0
bin	-20	0
bin	-19	0
bin	-18	0
bin	-17	0
bin	-16	0
bin	-15	0
bin	-14	0
bin	-13	0
bin	-12	0
bin	-11	0
bin	-10	0
bin	-9	0
bin	-8	0
bin	-7	0
bin	-6	0
bin	-5	0
bin	-4	0
bin	-3	0
bin	-2	0
bin	-1	0
bin	0	1
bin	1	2
bin	2	1
bin	3	1
bin	4	1
bin	5	2
bin	6	1
bin	7	1
bin	8	2
bin	9	1
bin	10	1
bin	11	2
bin	12	1
bin	13	1
bin	14	2
bin	15	1
bin	16	1
bin	17	1
bin	18	1
bin	19	1
bin	20	1
bin	21	1
bin	22	1
bin	23	1
bin	24	2
bin	25	1
bin	26	1
bin	27	1
bin	28	2
bin	29	1
bin	30	1
bin	31	2
bin	32	1
bin	33	2
bin	34	1
bin	35	1
bin	36	1
bin	37	1
bin	38	2
bin	39	1
bin	40	1
bin	41	1
bin	42	2
bin	43	1
bin	44	1
bin	45	1
bin	46	1
bin	47	1
bin	48	1
bin	49	1
bin	50	2
bin	51	1
bin	52	1
bin	53	2
bin	54	1
bin	55	1
bin	56	2
bin	57	1
bin	58	1
bin	59	1
bin	60	2
bin	61	1
bin	62	1
bin	63	1
bin	64	2
bin	65	1
bin	66	1
bin	67	1
bin	68	2
bin	69	1
bin	70	1
bin	71	1
bin	72	2
bin	73	1
bin	74	2
bin	75	1
bin	76	1
bin	77	2
bin	78	1
bin	79	1
bin	80	1
bin	81	1
bin	82	1
bin	83	2
bin	84	1
bin	85	2
bin	86	1
bin	87	1
bin	88	1
bin	89	1
bin	90	2
bin	91	1
bin	92	1
bin	93	2
bin	94	1
bin	95	1
bin	96	2
bin	97	1
bin	98	1
bin	99	2
bin	100	1
bin	101	1
bin	102	2
bin	103	1
bin	104	1
bin	105	1
bin	106	1
bin	107	1
bin	108	2
bin	109	1
bin	110	1
bin	111	1
bin	112	1
bin	113	1
bin	114	1
bin	115	2
bin	116	1
bin	117	1
bin	118	1
bin	119	820
scalar SimphonyDHTNetwork.members[20] 	#packetsInTheNetwork 	1244
statistic SimphonyDHTNetwork.members[20] 	"packets statistics"
field count 1582
field mean 630.0183312263
field stddev 359.99096241765
field sum 996689
field sqrsum 832819653
field min 0
field max 1243
attr type  int
bin	-INF	0
bin	-40	0
bin	-39	0
bin	-38	0
bin	-37	0
bin	-36	0
bin	-35	0
bin	-34	0
bin	-33	0
bin	-32	0
bin	-31	0
bin	-30	0
bin	-29	0
bin	-28	0
bin	-27	0
bin	-26	0
bin	-25	0
bin	-24	0
bin	-23	0
bin	-22	0
bin	-21	0
bin	-20	0
bin	-19	0
bin	-18	0
bin	-17	0
bin	-16	0
bin	-15	0
bin	-14	0
bin	-13	0
bin	-12	0
bin	-11	0
bin	-10	0
bin	-9	0
bin	-8	0
bin	-7	0
bin	-6	0
bin	-5	0
bin	-4	0
bin	-3	0
bin	-2	0
bin	-1	0
bin	0	1
bin	1	1
bin	2	1
bin	3	2
bin	4	1
bin	5	1
bin	6	2
bin	7	1
bin	8	1
bin	9	1
bin	10	2
bin	11	1
bin	12	1
bin	13	2
bin	14	1
bin	15	1
bin	16	1
bin	17	2
bin	18	1
bin	19	1
bin	20	2
bin	21	1
bin	22	1
bin	23	1
bin	24	1
bin	25	2
bin	26	1
bin	27	1
bin	28	2
bin	29	1
bin	30	1
bin	31	1
bin	32	2
bin	33	1
bin	34	1
bin	35	1
bin	36	1
bin	37	1
bin	38	1
bin	39	1
bin	40	2
bin	41	1
bin	42	1
bin	43	2
bin	44	1
bin	45	1
bin	46	1
bin	47	1
bin	48	1
bin	49	1
bin	50	2
bin	51	1
bin	52	1
bin	53	2
bin	54	1
bin	55	1
bin	56	2
bin	57	1
bin	58	1
bin	59	2
bin	60	1
bin	61	1
bin	62	1
bin	63	1
bin	64	2
bin	65	1
bin	66	1
bin	67	1
bin	68	2
bin	69	1
bin	70	1
bin	71	2
bin	72	1
bin	73	1
bin	74	1
bin	75	2
bin	76	1
bin	77	1
bin	78	2
bin	79	1
bin	80	1
bin	81	1
bin	82	2
bin	83	1
bin	84	1
bin	85	2
bin	86	1
bin	87	1
bin	88	1
bin	89	1
bin	90	1
bin	91	1
bin	92	2
bin	93	1
bin	94	1
bin	95	1
bin	96	1
bin	97	2
bin	98	1
bin	99	2
bin	100	1
bin	101	1
bin	102	1
bin	103	1
bin	104	2
bin	105	1
bin	106	1
bin	107	1
bin	108	2
bin	109	1
bin	110	1
bin	111	1
bin	112	1
bin	113	2
bin	114	1
bin	115	1
bin	116	2
bin	117	1
bin	118	1
bin	119	1434
scalar SimphonyDHTNetwork.members[21] 	#packetsInTheNetwork 	1028
statistic SimphonyDHTNetwork.members[21] 	"packets statistics"
field count 1327
field mean 517.46043707611
field stddev 294.75994741656
field sum 686670
field sqrsum 470531982
field min 0
field max 1027
attr type  int
bin	-INF	0
bin	-40	0
bin	-39	0
bin	-38	0
bin	-37	0
bin	-36	0
bin	-35	0
bin	-34	0
bin	-33	0
bin	-32	0
bin	-31	0
bin	-30	0
bin	-29	0
bin	-28	0
bin	-27	0
bin	-26	0
bin	-25	0
bin	-24	0
bin	-23	0
bin	-22	0
bin	-21	0
bin	-20	0
bin	-19	0
bin	-18	0
bin	-17	0
bin	-16	0
bin	-15	0
bin	-14	0
bin	-13	0
bin	-12	0
bin	-11	0
bin	-10	0
bin	-9	0
bin	-8	0
bin	-7	0
bin	-6	0
bin	-5	0
bin	-4	0
bin	-3	0
bin	-2	0
bin	-1	0
bin	0	1
bin	1	1
bin	2	1
bin	3	2
bin	4	1
bin	5	2
bin	6	1
bin	7	1
bin	8	1
bin	9	1
bin	10	1
bin	11	1
bin	12	1
bin	13	2
bin	14	1
bin	15	1
bin	16	2
bin	17	1
bin	18	1
bin	19	2
bin	20	1
bin	21	1
bin	22	2
bin	23	1
bin	24	1
bin	25	1
bin	26	1
bin	27	1
bin	28	1
bin	29	1
bin	30	2
bin	31	1
bin	32	1
bin	33	1
bin	34	1
bin	35	2
bin	36	1
bin	37	1
bin	38	2
bin	39	1
bin	40	1
bin	41	2
bin	42	1
bin	43	1
bin	44	2
bin	45	1
bin	46	1
bin	47	2
bin	48	1
bin	49	1
bin	50	1
bin	51	1
bin	52	1
bin	53	1
bin	54	2
bin	55	1
bin	56	1
bin	57	2
bin	58	1
bin	59	1
bin	60	2
bin	61	1
bin	62	1
bin	63	2
bin	64	1
bin	65	1
bin	66	1
bin	67	2
bin	68	1
bin	69	1
bin	70	1
bin	71	1
bin	72	2
bin	73	1
bin	74	1
bin	75	1
bin	76	2
bin	77	1
bin	78	1
bin	79	1
bin	80	1
bin	81	1
bin	82	1
bin	83	1
bin	84	1
bin	85	2
bin	86	1
bin	87	1
bin	88	1
bin	89	1
bin	90	1
bin	91	1
bin	92	1
bin	93	2
bin	94	1
bin	95	1
bin	96	1
bin	97	2
bin	98	1
bin	99	1
bin	100	1
bin	101	2
bin	102	1
bin	103	1
bin	104	2
bin	105	1
bin	106	1
bin	107	2
bin	108	1
bin	109	1
bin	110	1
bin	111	1
bin	112	1
bin	113	1
bin	114	2
bin	115	1
bin	116	2
bin	117	1
bin	118	1
bin	119	1
bin	120	1180
scalar SimphonyDHTNetwork.members[22] 	#packetsInTheNetwork 	958
statistic SimphonyDHTNetwork.members[22] 	"packets statistics"
field count 1131
field mean 466.95048629531
field stddev 278.4468796788
field sum 528121
field sqrsum 334218269
field min 0
field max 957
attr type  int
bin	-INF	0
bin	-40	0
bin	-39	0
bin	-38	0
bin	-37	0
bin	-36	0
bin	-35	0
bin	-34	0
bin	-33	0
bin	-32	0
bin	-31	0
bin	-30	0
bin	-29	0
bin	-28	0
bin	-27	0
bin	-26	0
bin	-25	0
bin	-24	0
bin	-23	0
bin	-22	0
bin	-21	0
bin	-20	0
bin	-19	0
bin	-18	0
bin	-17	0
bin	-16	0
bin	-15	0
bin	-14	0
bin	-13	0
bin	-12	0
bin	-11	0
bin	-10	0
bin	-9	0
bin	-8	0
bin	-7	0
bin	-6	0
bin	-5	0
bin	-4	0
bin	-3	0
bin	-2	0
bin	-1	0
bin	0	1
bin	1	1
bin	2	2
bin	3	1
bin	4	1
bin	5	2
bin	6	1
bin	7	1
bin	8	1
bin	9	2
bin	10	1
bin	11	1
bin	12	2
bin	13	1
bin	14	1
bin	15	1
bin	16	2
bin	17	1
bin	18	2
bin	19	1
bin	20	1
bin	21	1
bin	22	2
bin	23	1
bin	24	1
bin	25	1
bin	26	1
bin	27	1
bin	28	2
bin	29	1
bin	30	1
bin	31	1
bin	32	1
bin	33	2
bin	34	1
bin	35	1
bin	36	2
bin	37	1
bin	38	1
bin	39	2
bin	40	1
bin	41	1
bin	42	2
bin	43	1
bin	44	1
bin	45	1
bin	46	1
bin	47	1
bin	48	2
bin	49	1
bin	50	1
bin	51	2
bin	52	1
bin	53	1
bin	54	1
bin	55	1
bin	56	1
bin	57	1
bin	58	2
bin	59	1
bin	60	1
bin	61	2
bin	62	1
bin	63	1
bin	64	2
bin	65	1
bin	66	1
bin	67	1
bin	68	1
bin	69	1
bin	70	2
bin	71	1
bin	72	1
bin	73	1
bin	74	1
bin	75	1
bin	76	1
bin	77	2
bin	78	1
bin	79	2
bin	80	1
bin	81	1
bin	82	2
bin	83	1
bin	84	1
bin	85	1
bin	86	1
bin	87	1
bin	88	1
bin	89	2
bin	90	1
bin	91	1
bin	92	1
bin	93	2
bin	94	1
bin	95	1
bin	96	1
bin	97	1
bin	98	1
bin	99	1
bin	100	2
bin	101	1
bin	102	1
bin	103	2
bin	104	1
bin	105	1
bin	106	2
bin	107	1
bin	108	1
bin	109	2
bin	110	1
bin	111	1
bin	112	1
bin	113	2
bin	114	1
bin	115	1
bin	116	1
bin	117	1
bin	118	2
bin	119	983
scalar SimphonyDHTNetwork.members[23] 	#packetsInTheNetwork 	1566
statistic SimphonyDHTNetwork.members[23] 	"packets statistics"
field count 2015
field mean 784.48287841191
field stddev 449.05838213499
field sum 1580733
field sqrsum 1646187983
field min 0
field max 1565
attr type  int
bin	-INF	0
bin	-39	0
bin	-38	0
bin	-37	0
bin	-36	0
bin	-35	0
bin	-34	0
bin	-33	0
bin	-32	0
bin	-31	0
bin	-30	0
bin	-29	0
bin	-28	0
bin	-27	0
bin	-26	0
bin	-25	0
bin	-24	0
bin	-23	0
bin	-22	0
bin	-21	0
bin	-20	0
bin	-19	0
bin	-18	0
bin	-17	0
bin	-16	0
bin	-15	0
bin	-14	0
bin	-13	0
bin	-12	0
bin	-11	0
bin	-10	0
bin	-9	0
bin	-8	0
bin	-7	0
bin	-6	0
bin	-5	0
bin	-4	0
bin	-3	0
bin	-2	0
bin	-1	0
bin	0	1
bin	1	2
bin	2	1
bin	3	1
bin	4	1
bin	5	2
bin	6	1
bin	7	1
bin	8	1
bin	9	2
bin	10	1
bin	11	1
bin	12	1
bin	13	2
bin	14	1
bin	15	1
bin	16	1
bin	17	1
bin	18	1
bin	19	1
bin	20	1
bin	21	1
bin	22	1
bin	23	2
bin	24	1
bin	25	1
bin	26	2
bin	27	1
bin	28	1
bin	29	2
bin	30	1
bin	31	1
bin	32	2
bin	33	1
bin	34	2
bin	35	1
bin	36	1
bin	37	1
bin	38	2
bin	39	1
bin	40	1
bin	41	2
bin	42	1
bin	43	1
bin	44	2
bin	45	1
bin	46	1
bin	47	2
bin	48	1
bin	49	1
bin	50	2
bin	51	1
bin	52	1
bin	53	2
bin	54	1
bin	55	1
bin	56	2
bin	57	1
bin	58	1
bin	59	2
bin	60	1
bin	61	1
bin	62	1
bin	63	2
bin	64	1
bin	65	1
bin	66	1
bin	67	1
bin	68	1
bin	69	1
bin	70	2
bin	71	1
bin	72	1
bin	73	1
bin	74	1
bin	75	2
bin	76	1
bin	77	1
bin	78	2
bin	79	1
bin	80	1
bin	81	2
bin	82	1
bin	83	2
bin	84	1
bin	85	1
bin	86	1
bin	87	2
bin	88	1
bin	89	1
bin	90	1
bin	91	2
bin	92	1
bin	93	1
bin	94	2
bin	95	1
bin	96	1
bin	97	2
bin	98	1
bin	99	1
bin	100	1
bin	101	2
bin	102	1
bin	103	1
bin	104	2
bin	105	1
bin	106	2
bin	107	1
bin	108	1
bin	109	2
bin	110	1
bin	111	1
bin	112	2
bin	113	1
bin	114	1
bin	115	2
bin	116	1
bin	117	1865
scalar SimphonyDHTNetwork.members[24] 	#packetsInTheNetwork 	902
statistic SimphonyDHTNetwork.members[24] 	"packets statistics"
field count 1148
field mean 448.23780487805
field stddev 260.73838896439
field sum 514577
field sqrsum 308631095
field min 0
field max 901
attr type  int
bin	-INF	0
bin	-39	0
bin	-38	0
bin	-37	0
bin	-36	0
bin	-35	0
bin	-34	0
bin	-33	0
bin	-32	0
bin	-31	0
bin	-30	0
bin	-29	0
bin	-28	0
bin	-27	0
bin	-26	0
bin	-25	0
bin	-24	0
bin	-23	0
bin	-22	0
bin	-21	0
bin	-20	0
bin	-19	0
bin	-18	0
bin	-17	0
bin	-16	0
bin	-15	0
bin	-14	0
bin	-13	0
bin	-12	0
bin	-11	0
bin	-10	0
bin	-9	0
bin	-8	0
bin	-7	0
bin	-6	0
bin	-5	0
bin	-4	0
bin	-3	0
bin	-2	0
bin	-1	0
bin	0	1
bin	1	1
bin	2	2
bin	3	1
bin	4	1
bin	5	1
bin	6	2
bin	7	1
bin	8	1
bin	9	2
bin	10	1
bin	11	1
bin	12	1
bin	13	2
bin	14	1
bin	15	1
bin	16	1
bin	17	1
bin	18	2
bin	19	1
bin	20	1
bin	21	1
bin	22	1
bin	23	1
bin	24	2
bin	25	2
bin	26	1
bin	27	2
bin	28	1
bin	29	1
bin	30	1
bin	31	2
bin	32	1
bin	33	1
bin	34	1
bin	35	2
bin	36	1
bin	37	1
bin	38	1
bin	39	2
bin	40	1
bin	41	2
bin	42	1
bin	43	1
bin	44	2
bin	45	1
bin	46	1
bin	47	2
bin	48	1
bin	49	1
bin	50	2
bin	51	1
bin	52	1
bin	53	2
bin	54	1
bin	55	1
bin	56	1
bin	57	2
bin	58	1
bin	59	1
bin	60	1
bin	61	1
bin	62	2
bin	63	1
bin	64	1
bin	65	1
bin	66	2
bin	67	1
bin	68	1
bin	69	2
bin	70	1
bin	71	1
bin	72	1
bin	73	2
bin	74	1
bin	75	1
bin	76	2
bin	77	1
bin	78	1
bin	79	2
bin	80	1
bin	81	1
bin	82	2
bin	83	1
bin	84	1
bin	85	2
bin	86	1
bin	87	1
bin	88	2
bin	89	1
bin	90	1
bin	91	2
bin	92	1
bin	93	1
bin	94	2
bin	95	1
bin	96	1
bin	97	2
bin	98	1
bin	99	1
bin	100	1
bin	101	2
bin	102	1
bin	103	1
bin	104	1
bin	105	1
bin	106	2
bin	107	1
bin	108	2
bin	109	1
bin	110	1
bin	111	1
bin	112	2
bin	113	1
bin	114	1
bin	115	1
bin	116	999
scalar SimphonyDHTNetwork.members[25] 	#packetsInTheNetwork 	1243
statistic SimphonyDHTNetwork.members[25] 	"packets statistics"
field count 1602
field mean 616.26404494382
field stddev 356.52860742607
field sum 987255
field sqrsum 811917109
field min 0
field max 1242
attr type  int
bin	-INF	0
bin	-38	0
bin	-37	0
bin	-36	0
bin	-35	0
bin	-34	0
bin	-33	0
bin	-32	0
bin	-31	0
bin	-30	0
bin	-29	0
bin	-28	0
bin	-27	0
bin	-26	0
bin	-25	0
bin	-24	0
bin	-23	0
bin	-22	0
bin	-21	0
bin	-20	0
bin	-19	0
bin	-18	0
bin	-17	0
bin	-16	0
bin	-15	0
bin	-14	0
bin	-13	0
bin	-12	0
bin	-11	0
bin	-10	0
bin	-9	0
bin	-8	0
bin	-7	0
bin	-6	0
bin	-5	0
bin	-4	0
bin	-3	0
bin	-2	0
bin	-1	0
bin	0	1
bin	1	1
bin	2	1
bin	3	2
bin	4	1
bin	5	1
bin	6	1
bin	7	2
bin	8	1
bin	9	1
bin	10	1
bin	11	1
bin	12	1
bin	13	1
bin	14	1
bin	15	1
bin	16	2
bin	17	1
bin	18	1
bin	19	2
bin	20	1
bin	21	1
bin	22	2
bin	23	1
bin	24	1
bin	25	2
bin	26	1
bin	27	1
bin	28	2
bin	29	1
bin	30	1
bin	31	1
bin	32	2
bin	33	1
bin	34	2
bin	35	2
bin	36	1
bin	37	2
bin	38	1
bin	39	1
bin	40	1
bin	41	1
bin	42	2
bin	43	1
bin	44	1
bin	45	2
bin	46	1
bin	47	1
bin	48	1
bin	49	2
bin	50	1
bin	51	1
bin	52	2
bin	53	1
bin	54	1
bin	55	2
bin	56	1
bin	57	1
bin	58	2
bin	59	1
bin	60	1
bin	61	2
bin	62	1
bin	63	1
bin	64	2
bin	65	1
bin	66	1
bin	67	2
bin	68	1
bin	69	1
bin	70	2
bin	71	1
bin	72	1
bin	73	2
bin	74	1
bin	75	1
bin	76	2
bin	77	1
bin	78	1
bin	79	2
bin	80	1
bin	81	1
bin	82	1
bin	83	1
bin	84	2
bin	85	1
bin	86	1
bin	87	2
bin	88	1
bin	89	1
bin	90	2
bin	91	1
bin	92	1
bin	93	2
bin	94	1
bin	95	1
bin	96	2
bin	97	1
bin	98	1
bin	99	1
bin	100	1
bin	101	1
bin	102	2
bin	103	1
bin	104	1
bin	105	2
bin	106	1
bin	107	1
bin	108	1
bin	109	1
bin	110	1
bin	111	1
bin	112	1
bin	113	1
bin	114	1457
scalar SimphonyDHTNetwork.members[26] 	#packetsInTheNetwork 	856
statistic SimphonyDHTNetwork.members[26] 	"packets statistics"
field count 1007
field mean 417.62363455809
field stddev 250.68534362512
field sum 420547
field sqrsum 238850567
field min 0
field max 855
attr type  int
bin	-INF	0
bin	-40	0
bin	-39	0
bin	-38	0
bin	-37	0
bin	-36	0
bin	-35	0
bin	-34	0
bin	-33	0
bin	-32	0
bin	-31	0
bin	-30	0
bin	-29	0
bin	-28	0
bin	-27	0
bin	-26	0
bin	-25	0
bin	-24	0
bin	-23	0
bin	-22	0
bin	-21	0
bin	-20	0
bin	-19	0
bin	-18	0
bin	-17	0
bin	-16	0
bin	-15	0
bin	-14	0
bin	-13	0
bin	-12	0
bin	-11	0
bin	-10	0
bin	-9	0
bin	-8	0
bin	-7	0
bin	-6	0
bin	-5	0
bin	-4	0
bin	-3	0
bin	-2	0
bin	-1	0
bin	0	1
bin	1	2
bin	2	1
bin	3	1
bin	4	2
bin	5	1
bin	6	1
bin	7	1
bin	8	2
bin	9	1
bin	10	1
bin	11	2
bin	12	1
bin	13	1
bin	14	2
bin	15	1
bin	16	1
bin	17	2
bin	18	1
bin	19	1
bin	20	2
bin	21	1
bin	22	1
bin	23	2
bin	24	1
bin	25	1
bin	26	1
bin	27	2
bin	28	1
bin	29	1
bin	30	1
bin	31	2
bin	32	1
bin	33	1
bin	34	1
bin	35	2
bin	36	1
bin	37	1
bin	38	1
bin	39	1
bin	40	2
bin	41	1
bin	42	0
bin	43	2
bin	44	2
bin	45	1
bin	46	2
bin	47	1
bin	48	2
bin	49	1
bin	50	1
bin	51	1
bin	52	2
bin	53	1
bin	54	1
bin	55	1
bin	56	1
bin	57	1
bin	58	1
bin	59	1
bin	60	2
bin	61	1
bin	62	1
bin	63	2
bin	64	1
bin	65	1
bin	66	2
bin	67	1
bin	68	1
bin	69	1
bin	70	2
bin	71	1
bin	72	1
bin	73	1
bin	74	1
bin	75	1
bin	76	1
bin	77	1
bin	78	1
bin	79	2
bin	80	1
bin	81	1
bin	82	2
bin	83	1
bin	84	1
bin	85	2
bin	86	1
bin	87	1
bin	88	1
bin	89	2
bin	90	1
bin	91	1
bin	92	2
bin	93	1
bin	94	1
bin	95	2
bin	96	1
bin	97	1
bin	98	1
bin	99	2
bin	100	1
bin	101	1
bin	102	1
bin	103	1
bin	104	1
bin	105	1
bin	106	1
bin	107	1
bin	108	2
bin	109	1
bin	110	1
bin	111	2
bin	112	1
bin	113	1
bin	114	1
bin	115	1
bin	116	2
bin	117	1
bin	118	2
bin	119	857
scalar SimphonyDHTNetwork.members[27] 	#packetsInTheNetwork 	1898
statistic SimphonyDHTNetwork.members[27] 	"packets statistics"
field count 2430
field mean 961.64362139918
field stddev 547.08885368195
field sum 2336794
field sqrsum 2974177838
field min 0
field max 1897
attr type  int
bin	-INF	0
bin	-41	0
bin	-40	0
bin	-39	0
bin	-38	0
bin	-37	0
bin	-36	0
bin	-35	0
bin	-34	0
bin	-33	0
bin	-32	0
bin	-31	0
bin	-30	0
bin	-29	0
bin	-28	0
bin	-27	0
bin	-26	0
bin	-25	0
bin	-24	0
bin	-23	0
bin	-22	0
bin	-21	0
bin	-20	0
bin	-19	0
bin	-18	0
bin	-17	0
bin	-16	0
bin	-15	0
bin	-14	0
bin	-13	0
bin	-12	0
bin	-11	0
bin	-10	0
bin	-9	0
bin	-8	0
bin	-7	0
bin	-6	0
bin	-5	0
bin	-4	0
bin	-3	0
bin	-2	0
bin	-1	0
bin	0	1
bin	1	1
bin	2	1
bin	3	2
bin	4	1
bin	5	1
bin	6	1
bin	7	1
bin	8	1
bin	9	1
bin	10	2
bin	11	1
bin	12	1
bin	13	1
bin	14	1
bin	15	1
bin	16	2
bin	17	1
bin	18	1
bin	19	1
bin	20	2
bin	21	1
bin	22	1
bin	23	2
bin	24	1
bin	25	1
bin	26	2
bin	27	1
bin	28	1
bin	29	1
bin	30	2
bin	31	1
bin	32	1
bin	33	1
bin	34	1
bin	35	1
bin	36	1
bin	37	1
bin	38	1
bin	39	1
bin	40	1
bin	41	1
bin	42	2
bin	43	1
bin	44	1
bin	45	2
bin	46	1
bin	47	1
bin	48	2
bin	49	1
bin	50	1
bin	51	2
bin	52	1
bin	53	1
bin	54	1
bin	55	1
bin	56	2
bin	57	1
bin	58	2
bin	59	1
bin	60	1
bin	61	2
bin	62	1
bin	63	1
bin	64	1
bin	65	1
bin	66	1
bin	67	1
bin	68	2
bin	69	1
bin	70	1
bin	71	2
bin	72	1
bin	73	1
bin	74	2
bin	75	1
bin	76	1
bin	77	1
bin	78	1
bin	79	2
bin	80	1
bin	81	1
bin	82	2
bin	83	1
bin	84	1
bin	85	2
bin	86	1
bin	87	1
bin	88	2
bin	89	1
bin	90	1
bin	91	2
bin	92	1
bin	93	1
bin	94	2
bin	95	1
bin	96	1
bin	97	2
bin	98	1
bin	99	1
bin	100	1
bin	101	1
bin	102	2
bin	103	1
bin	104	1
bin	105	2
bin	106	1
bin	107	1
bin	108	2
bin	109	1
bin	110	1
bin	111	2
bin	112	1
bin	113	1
bin	114	1
bin	115	1
bin	116	2
bin	117	1
bin	118	1
bin	119	1
bin	120	1
bin	121	1
bin	122	2279
scalar SimphonyDHTNetwork.members[28] 	#packetsInTheNetwork 	1090
statistic SimphonyDHTNetwork.members[28] 	"packets statistics"
field count 1413
field mean 549.03892427459
field stddev 313.71584197113
field sum 775792
field sqrsum 564905698
field min 0
field max 1089
attr type  int
bin	-INF	0
bin	-39	0
bin	-38	0
bin	-37	0
bin	-36	0
bin	-35	0
bin	-34	0
bin	-33	0
bin	-32	0
bin	-31	0
bin	-30	0
bin	-29	0
bin	-28	0
bin	-27	0
bin	-26	0
bin	-25	0
bin	-24	0
bin	-23	0
bin	-22	0
bin	-21	0
bin	-20	0
bin	-19	0
bin	-18	0
bin	-17	0
bin	-16	0
bin	-15	0
bin	-14	0
bin	-13	0
bin	-12	0
bin	-11	0
bin	-10	0
bin	-9	0
bin	-8	0
bin	-7	0
bin	-6	0
bin	-5	0
bin	-4	0
bin	-3	0
bin	-2	0
bin	-1	0
bin	0	1
bin	1	2
bin	2	1
bin	3	1
bin	4	1
bin	5	2
bin	6	1
bin	7	1
bin	8	1
bin	9	1
bin	10	1
bin	11	1
bin	12	1
bin	13	2
bin	14	1
bin	15	1
bin	16	2
bin	17	1
bin	18	1
bin	19	2
bin	20	1
bin	21	1
bin	22	1
bin	23	2
bin	24	1
bin	25	1
bin	26	2
bin	27	1
bin	28	1
bin	29	2
bin	30	1
bin	31	1
bin	32	1
bin	33	2
bin	34	1
bin	35	1
bin	36	1
bin	37	2
bin	38	1
bin	39	1
bin	40	1
bin	41	1
bin	42	2
bin	43	1
bin	44	1
bin	45	2
bin	46	1
bin	47	1
bin	48	2
bin	49	1
bin	50	1
bin	51	2
bin	52	1
bin	53	1
bin	54	2
bin	55	1
bin	56	1
bin	57	2
bin	58	1
bin	59	1
bin	60	2
bin	61	1
bin	62	1
bin	63	1
bin	64	2
bin	65	1
bin	66	1
bin	67	2
bin	68	1
bin	69	1
bin	70	1
bin	71	2
bin	72	1
bin	73	1
bin	74	1
bin	75	1
bin	76	1
bin	77	2
bin	78	1
bin	79	1
bin	80	1
bin	81	2
bin	82	1
bin	83	1
bin	84	1
bin	85	1
bin	86	1
bin	87	1
bin	88	1
bin	89	2
bin	90	1
bin	91	1
bin	92	2
bin	93	1
bin	94	1
bin	95	2
bin	96	1
bin	97	1
bin	98	2
bin	99	1
bin	100	1
bin	101	2
bin	102	1
bin	103	1
bin	104	2
bin	105	1
bin	106	1
bin	107	1
bin	108	1
bin	109	1
bin	110	1
bin	111	1
bin	112	2
bin	113	1
bin	114	1
bin	115	2
bin	116	1
bin	117	1266
scalar SimphonyDHTNetwork.members[29] 	#packetsInTheNetwork 	702
statistic SimphonyDHTNetwork.members[29] 	"packets statistics"
field count 842
field mean 345.11401425178
field stddev 204.60762906679
field sum 290586
field sqrsum 135493162
field min 0
field max 701
attr type  int
bin	-INF	0
bin	-40	0
bin	-39	0
bin	-38	0
bin	-37	0
bin	-36	0
bin	-35	0
bin	-34	0
bin	-33	0
bin	-32	0
bin	-31	0
bin	-30	0
bin	-29	0
bin	-28	0
bin	-27	0
bin	-26	0
bin	-25	0
bin	-24	0
bin	-23	0
bin	-22	0
bin	-21	0
bin	-20	0
bin	-19	0
bin	-18	0
bin	-17	0
bin	-16	0
bin	-15	0
bin	-14	0
bin	-13	0
bin	-12	0
bin	-11	0
bin	-10	0
bin	-9	0
bin	-8	0
bin	-7	0
bin	-6	0
bin	-5	0
bin	-4	0
bin	-3	0
bin	-2	0
bin	-1	0
bin	0	1
bin	1	2
bin	2	1
bin	3	1
bin	4	2
bin	5	1
bin	6	1
bin	7	1
bin	8	2
bin	9	1
bin	10	1
bin	11	2
bin	12	1
bin	13	1
bin	14	2
bin	15	1
bin	16	1
bin	17	2
bin	18	1
bin	19	1
bin	20	1
bin	21	1
bin	22	1
bin	23	1
bin	24	2
bin	25	1
bin	26	1
bin	27	1
bin	28	1
bin	29	1
bin	30	1
bin	31	2
bin	32	1
bin	33	1
bin	34	1
bin	35	2
bin	36	1
bin	37	1
bin	38	1
bin	39	1
bin	40	2
bin	41	1
bin	42	1
bin	43	1
bin	44	2
bin	45	1
bin	46	1
bin	47	1
bin	48	2
bin	49	1
bin	50	1
bin	51	2
bin	52	1
bin	53	1
bin	54	1
bin	55	0
bin	56	2
bin	57	2
bin	58	1
bin	59	2
bin	60	1
bin	61	1
bin	62	2
bin	63	1
bin	64	1
bin	65	1
bin	66	1
bin	67	1
bin	68	1
bin	69	2
bin	70	1
bin	71	1
bin	72	1
bin	73	2
bin	74	1
bin	75	1
bin	76	1
bin	77	2
bin	78	1
bin	79	1
bin	80	2
bin	81	1
bin	82	1
bin	83	1
bin	84	2
bin	85	1
bin	86	1
bin	87	1
bin	88	2
bin	89	1
bin	90	1
bin	91	2
bin	92	1
bin	93	1
bin	94	2
bin	95	1
bin	96	1
bin	97	1
bin	98	2
bin	99	1
bin	100	1
bin	101	2
bin	102	1
bin	103	1
bin	104	2
bin	105	1
bin	106	1
bin	107	1
bin	108	2
bin	109	1
bin	110	1
bin	111	1
bin	112	1
bin	113	1
bin	114	1
bin	115	1
bin	116	1
bin	117	1
bin	118	2
bin	119	1
bin	120	693
scalar SimphonyDHTNetwork.members[30] 	#packetsInTheNetwork 	1221
statistic SimphonyDHTNetwork.members[30] 	"packets statistics"
field count 1568
field mean 619.01339285714
field stddev 351.59231075127
field sum 970613
field sqrsum 794530525
field min 0
field max 1220
attr type  int
bin	-INF	0
bin	-40	0
bin	-39	0
bin	-38	0
bin	-37	0
bin	-36	0
bin	-35	0
bin	-34	0
bin	-33	0
bin	-32	0
bin	-31	0
bin	-30	0
bin	-29	0
bin	-28	0
bin	-27	0
bin	-26	0
bin	-25	0
bin	-24	0
bin	-23	0
bin	-22	0
bin	-21	0
bin	-20	0
bin	-19	0
bin	-18	0
bin	-17	0
bin	-16	0
bin	-15	0
bin	-14	0
bin	-13	0
bin	-12	0
bin	-11	0
bin	-10	0
bin	-9	0
bin	-8	0
bin	-7	0
bin	-6	0
bin	-5	0
bin	-4	0
bin	-3	0
bin	-2	0
bin	-1	0
bin	0	1
bin	1	1
bin	2	2
bin	3	1
bin	4	1
bin	5	2
bin	6	1
bin	7	1
bin	8	1
bin	9	2
bin	10	1
bin	11	1
bin	12	2
bin	13	1
bin	14	1
bin	15	1
bin	16	2
bin	17	1
bin	18	1
bin	19	1
bin	20	2
bin	21	1
bin	22	1
bin	23	2
bin	24	1
bin	25	1
bin	26	1
bin	27	1
bin	28	1
bin	29	2
bin	30	1
bin	31	1
bin	32	2
bin	33	1
bin	34	1
bin	35	2
bin	36	1
bin	37	1
bin	38	2
bin	39	1
bin	40	1
bin	41	2
bin	42	1
bin	43	1
bin	44	1
bin	45	2
bin	46	1
bin	47	1
bin	48	1
bin	49	2
bin	50	1
bin	51	1
bin	52	1
bin	53	1
bin	54	1
bin	55	1
bin	56	1
bin	57	1
bin	58	2
bin	59	1
bin	60	1
bin	61	2
bin	62	1
bin	63	1
bin	64	1
bin	65	1
bin	66	1
bin	67	1
bin	68	1
bin	69	2
bin	70	1
bin	71	1
bin	72	2
bin	73	1
bin	74	1
bin	75	2
bin	76	1
bin	77	1
bin	78	2
bin	79	1
bin	80	1
bin	81	2
bin	82	1
bin	83	1
bin	84	2
bin	85	1
bin	86	1
bin	87	1
bin	88	1
bin	89	2
bin	90	1
bin	91	1
bin	92	1
bin	93	2
bin	94	1
bin	95	1
bin	96	2
bin	97	1
bin	98	1
bin	99	2
bin	100	1
bin	101	1
bin	102	1
bin	103	2
bin	104	1
bin	105	1
bin	106	1
bin	107	2
bin	108	1
bin	109	1
bin	110	1
bin	111	1
bin	112	1
bin	113	1
bin	114	2
bin	115	1
bin	116	1
bin	117	1
bin	118	1
bin	119	1420
scalar SimphonyDHTNetwork.members[31] 	#packetsInTheNetwork 	985
statistic SimphonyDHTNetwork.members[31] 	"packets statistics"
field count 1272
field mean 496.91666666667
field stddev 282.74030972475
field sum 632078
field sqrsum 415696480
field min 0
field max 984
attr type  int
bin	-INF	0
bin	-40	0
bin	-39	0
bin	-38	0
bin	-37	0
bin	-36	0
bin	-35	0
bin	-34	0
bin	-33	0
bin	-32	0
bin	-31	0
bin	-30	0
bin	-29	0
bin	-28	0
bin	-27	0
bin	-26	0
bin	-25	0
bin	-24	0
bin	-23	0
bin	-22	0
bin	-21	0
bin	-20	0
bin	-19	0
bin	-18	0
bin	-17	0
bin	-16	0
bin	-15	0
bin	-14	0
bin	-13	0
bin	-12	0
bin	-11	0
bin	-10	0
bin	-9	0
bin	-8	0
bin	-7	0
bin	-6	0
bin	-5	0
bin	-4	0
bin	-3	0
bin	-2	0
bin	-1	0
bin	0	1
bin	1	1
bin	2	2
bin	3	1
bin	4	1
bin	5	1
bin	6	1
bin	7	1
bin	8	1
bin	9	2
bin	10	1
bin	11	1
bin	12	2
bin	13	1
bin	14	1
bin	15	2
bin	16	1
bin	17	1
bin	18	2
bin	19	1
bin	20	1
bin	21	2
bin	22	1
bin	23	1
bin	24	1
bin	25	2
bin	26	1
bin	27	1
bin	28	1
bin	29	2
bin	30	1
bin	31	1
bin	32	1
bin	33	1
bin	34	1
bin	35	1
bin	36	1
bin	37	1
bin	38	1
bin	39	2
bin	40	1
bin	41	1
bin	42	2
bin	43	1
bin	44	1
bin	45	1
bin	46	1
bin	47	2
bin	48	1
bin	49	1
bin	50	2
bin	51	1
bin	52	1
bin	53	2
bin	54	1
bin	55	1
bin	56	2
bin	57	1
bin	58	1
bin	59	2
bin	60	1
bin	61	1
bin	62	1
bin	63	1
bin	64	1
bin	65	1
bin	66	2
bin	67	1
bin	68	2
bin	69	1
bin	70	1
bin	71	2
bin	72	1
bin	73	1
bin	74	2
bin	75	1
bin	76	1
bin	77	2
bin	78	1
bin	79	1
bin	80	1
bin	81	2
bin	82	1
bin	83	1
bin	84	2
bin	85	1
bin	86	1
bin	87	2
bin	88	1
bin	89	1
bin	90	1
bin	91	1
bin	92	2
bin	93	1
bin	94	1
bin	95	1
bin	96	1
bin	97	1
bin	98	1
bin	99	1
bin	100	1
bin	101	1
bin	102	2
bin	103	1
bin	104	1
bin	105	1
bin	106	1
bin	107	1
bin	108	1
bin	109	1
bin	110	2
bin	111	1
bin	112	1
bin	113	1
bin	114	2
bin	115	1
bin	116	1
bin	117	1
bin	118	2
bin	119	1125
scalar SimphonyDHTNetwork.members[32] 	#packetsInTheNetwork 	916
statistic SimphonyDHTNetwork.members[32] 	"packets statistics"
field count 1078
field mean 445.32560296846
field stddev 266.18126326793
field sum 480061
field sqrsum 290091559
field min 0
field max 915
attr type  int
bin	-INF	0
bin	-40	0
bin	-39	0
bin	-38	0
bin	-37	0
bin	-36	0
bin	-35	0
bin	-34	0
bin	-33	0
bin	-32	0
bin	-31	0
bin	-30	0
bin	-29	0
bin	-28	0
bin	-27	0
bin	-26	0
bin	-25	0
bin	-24	0
bin	-23	0
bin	-22	0
bin	-21	0
bin	-20	0
bin	-19	0
bin	-18	0
bin	-17	0
bin	-16	0
bin	-15	0
bin	-14	0
bin	-13	0
bin	-12	0
bin	-11	0
bin	-10	0
bin	-9	0
bin	-8	0
bin	-7	0
bin	-6	0
bin	-5	0
bin	-4	0
bin	-3	0
bin	-2	0
bin	-1	0
bin	0	1
bin	1	1
bin	2	2
bin	3	1
bin	4	1
bin	5	2
bin	6	1
bin	7	1
bin	8	2
bin	9	1
bin	10	1
bin	11	1
bin	12	2
bin	13	1
bin	14	1
bin	15	1
bin	16	2
bin	17	1
bin	18	1
bin	19	1
bin	20	2
bin	21	1
bin	22	1
bin	23	2
bin	24	1
bin	25	1
bin	26	1
bin	27	1
bin	28	1
bin	29	2
bin	30	1
bin	31	1
bin	32	2
bin	33	1
bin	34	1
bin	35	1
bin	36	2
bin	37	1
bin	38	1
bin	39	2
bin	40	1
bin	41	1
bin	42	2
bin	43	1
bin	44	1
bin	45	2
bin	46	1
bin	47	1
bin	48	2
bin	49	1
bin	50	1
bin	51	1
bin	52	1
bin	53	1
bin	54	2
bin	55	1
bin	56	1
bin	57	2
bin	58	1
bin	59	1
bin	60	1
bin	61	1
bin	62	1
bin	63	1
bin	64	2
bin	65	1
bin	66	1
bin	67	2
bin	68	1
bin	69	1
bin	70	2
bin	71	1
bin	72	1
bin	73	1
bin	74	1
bin	75	1
bin	76	1
bin	77	2
bin	78	1
bin	79	1
bin	80	1
bin	81	1
bin	82	2
bin	83	1
bin	84	1
bin	85	1
bin	86	1
bin	87	1
bin	88	1
bin	89	1
bin	90	2
bin	91	1
bin	92	1
bin	93	2
bin	94	1
bin	95	1
bin	96	1
bin	97	1
bin	98	1
bin	99	2
bin	100	1
bin	101	1
bin	102	2
bin	103	1
bin	104	1
bin	105	1
bin	106	1
bin	107	1
bin	108	1
bin	109	2
bin	110	1
bin	111	1
bin	112	2
bin	113	1
bin	114	1
bin	115	2
bin	116	1
bin	117	1
bin	118	2
bin	119	930
scalar SimphonyDHTNetwork.members[33] 	#packetsInTheNetwork 	1492
statistic SimphonyDHTNetwork.members[33] 	"packets statistics"
field count 1943
field mean 749.19557385486
field stddev 429.06660825114
field sum 1455687
field sqrsum 1448112873
field min 0
field max 1491
attr type  int
bin	-INF	0
bin	-38	0
bin	-37	0
bin	-36	0
bin	-35	0
bin	-34	0
bin	-33	0
bin	-32	0
bin	-31	0
bin	-30	0
bin	-29	0
bin	-28	0
bin	-27	0
bin	-26	0
bin	-25	0
bin	-24	0
bin	-23	0
bin	-22	0
bin	-21	0
bin	-20	0
bin	-19	0
bin	-18	0
bin	-17	0
bin	-16	0
bin	-15	0
bin	-14	0
bin	-13	0
bin	-12	0
bin	-11	0
bin	-10	0
bin	-9	0
bin	-8	0
bin	-7	0
bin	-6	0
bin	-5	0
bin	-4	0
bin	-3	0
bin	-2	0
bin	-1	0
bin	0	1
bin	1	2
bin	2	1
bin	3	1
bin	4	1
bin	5	2
bin	6	1
bin	7	1
bin	8	2
bin	9	1
bin	10	1
bin	11	1
bin	12	1
bin	13	2
bin	14	1
bin	15	1
bin	16	2
bin	17	1
bin	18	1
bin	19	2
bin	20	1
bin	21	1
bin	22	2
bin	23	1
bin	24	1
bin	25	2
bin	26	1
bin	27	1
bin	28	1
bin	29	2
bin	30	1
bin	31	1
bin	32	2
bin	33	1
bin	34	1
bin	35	2
bin	36	1
bin	37	1
bin	38	2
bin	39	1
bin	40	1
bin	41	2
bin	42	1
bin	43	1
bin	44	2
bin	45	1
bin	46	1
bin	47	2
bin	48	1
bin	49	1
bin	50	2
bin	51	1
bin	52	1
bin	53	1
bin	54	2
bin	55	1
bin	56	1
bin	57	2
bin	58	1
bin	59	1
bin	60	1
bin	61	1
bin	62	1
bin	63	2
bin	64	1
bin	65	1
bin	66	1
bin	67	2
bin	68	1
bin	69	1
bin	70	2
bin	71	1
bin	72	1
bin	73	2
bin	74	1
bin	75	1
bin	76	2
bin	77	1
bin	78	1
bin	79	2
bin	80	1
bin	81	2
bin	82	1
bin	83	1
bin	84	1
bin	85	2
bin	86	1
bin	87	1
bin	88	1
bin	89	2
bin	90	1
bin	91	1
bin	92	2
bin	93	1
bin	94	1
bin	95	2
bin	96	1
bin	97	1
bin	98	1
bin	99	2
bin	100	1
bin	101	1
bin	102	2
bin	103	1
bin	104	1
bin	105	2
bin	106	1
bin	107	1
bin	108	2
bin	109	1
bin	110	1
bin	111	1
bin	112	1
bin	113	2
bin	114	1795
scalar SimphonyDHTNetwork.members[34] 	#packetsInTheNetwork 	752
statistic SimphonyDHTNetwork.members[34] 	"packets statistics"
field count 886
field mean 369.51693002257
field stddev 217.06917131822
field sum 327392
field sqrsum 162677224
field min 0
field max 751
attr type  int
bin	-INF	0
bin	-41	0
bin	-40	0
bin	-39	0
bin	-38	0
bin	-37	0
bin	-36	0
bin	-35	0
bin	-34	0
bin	-33	0
bin	-32	0
bin	-31	0
bin	-30	0
bin	-29	0
bin	-28	0
bin	-27	0
bin	-26	0
bin	-25	0
bin	-24	0
bin	-23	0
bin	-22	0
bin	-21	0
bin	-20	0
bin	-19	0
bin	-18	0
bin	-17	0
bin	-16	0
bin	-15	0
bin	-14	0
bin	-13	0
bin	-12	0
bin	-11	0
bin	-10	0
bin	-9	0
bin	-8	0
bin	-7	0
bin	-6	0
bin	-5	0
bin	-4	0
bin	-3	0
bin	-2	0
bin	-1	0
bin	0	1
bin	1	1
bin	2	1
bin	3	2
bin	4	1
bin	5	1
bin	6	2
bin	7	1
bin	8	1
bin	9	1
bin	10	1
bin	11	1
bin	12	2
bin	13	1
bin	14	1
bin	15	1
bin	16	2
bin	17	1
bin	18	1
bin	19	1
bin	20	1
bin	21	1
bin	22	2
bin	23	1
bin	24	1
bin	25	1
bin	26	1
bin	27	1
bin	28	1
bin	29	1
bin	30	1
bin	31	2
bin	32	1
bin	33	1
bin	34	1
bin	35	1
bin	36	1
bin	37	2
bin	38	1
bin	39	1
bin	40	2
bin	41	1
bin	42	1
bin	43	2
bin	44	1
bin	45	1
bin	46	1
bin	47	2
bin	48	1
bin	49	1
bin	50	1
bin	51	2
bin	52	1
bin	53	1
bin	54	1
bin	55	1
bin	56	2
bin	57	1
bin	58	1
bin	59	2
bin	60	1
bin	61	1
bin	62	1
bin	63	1
bin	64	2
bin	65	1
bin	66	1
bin	67	1
bin	68	1
bin	69	1
bin	70	2
bin	71	1
bin	72	1
bin	73	2
bin	74	1
bin	75	1
bin	76	1
bin	77	1
bin	78	2
bin	79	1
bin	80	1
bin	81	2
bin	82	1
bin	83	1
bin	84	2
bin	85	1
bin	86	1
bin	87	2
bin	88	1
bin	89	1
bin	90	2
bin	91	1
bin	92	1
bin	93	2
bin	94	1
bin	95	1
bin	96	1
bin	97	1
bin	98	1
bin	99	1
bin	100	1
bin	101	1
bin	102	2
bin	103	1
bin	104	1
bin	105	2
bin	106	1
bin	107	1
bin	108	1
bin	109	1
bin	110	1
bin	111	1
bin	112	2
bin	113	1
bin	114	1
bin	115	1
bin	116	1
bin	117	1
bin	118	1
bin	119	2
bin	120	1
bin	121	1
bin	122	738
scalar SimphonyDHTNetwork.members[35] 	#packetsInTheNetwork 	1301
statistic SimphonyDHTNetwork.members[35] 	"packets statistics"
field count 1674
field mean 649.94623655914
field stddev 374.2661064626
field sum 1088010
field sqrsum 941493678
field min 0
field max 1300
attr type  int
bin	-INF	0
bin	-39	0
bin	-38	0
bin	-37	0
bin	-36	0
bin	-35	0
bin	-34	0
bin	-33	0
bin	-32	0
bin	-31	0
bin	-30	0
bin	-29	0
bin	-28	0
bin	-27	0
bin	-26	0
bin	-25	0
bin	-24	0
bin	-23	0
bin	-22	0
bin	-21	0
bin	-20	0
bin	-19	0
bin	-18	0
bin	-17	0
bin	-16	0
bin	-15	0
bin	-14	0
bin	-13	0
bin	-12	0
bin	-11	0
bin	-10	0
bin	-9	0
bin	-8	0
bin	-7	0
bin	-6	0
bin	-5	0
bin	-4	0
bin	-3	0
bin	-2	0
bin	-1	0
bin	0	1
bin	1	1
bin	2	1
bin	3	1
bin	4	2
bin	5	1
bin	6	1
bin	7	2
bin	8	1
bin	9	1
bin	10	1
bin	11	1
bin	12	1
bin	13	1
bin	14	1
bin	15	1
bin	16	2
bin	17	1
bin	18	1
bin	19	2
bin	20	1
bin	21	1
bin	22	2
bin	23	1
bin	24	1
bin	25	2
bin	26	1
bin	27	1
bin	28	2
bin	29	1
bin	30	1
bin	31	1
bin	32	2
bin	33	1
bin	34	1
bin	35	2
bin	36	1
bin	37	1
bin	38	1
bin	39	2
bin	40	1
bin	41	1
bin	42	2
bin	43	1
bin	44	1
bin	45	2
bin	46	1
bin	47	1
bin	48	2
bin	49	1
bin	50	1
bin	51	2
bin	52	1
bin	53	1
bin	54	1
bin	55	2
bin	56	1
bin	57	1
bin	58	2
bin	59	1
bin	60	1
bin	61	2
bin	62	1
bin	63	1
bin	64	2
bin	65	1
bin	66	1
bin	67	2
bin	68	1
bin	69	1
bin	70	2
bin	71	1
bin	72	1
bin	73	2
bin	74	1
bin	75	1
bin	76	2
bin	77	1
bin	78	1
bin	79	1
bin	80	2
bin	81	1
bin	82	1
bin	83	1
bin	84	2
bin	85	1
bin	86	1
bin	87	2
bin	88	1
bin	89	1
bin	90	2
bin	91	1
bin	92	1
bin	93	2
bin	94	1
bin	95	1
bin	96	1
bin	97	1
bin	98	1
bin	99	1
bin	100	2
bin	101	1
bin	102	2
bin	103	1
bin	104	1
bin	105	2
bin	106	1
bin	107	1
bin	108	1
bin	109	1
bin	110	1
bin	111	1
bin	112	1
bin	113	1
bin	114	1
bin	115	1
bin	116	1528
scalar SimphonyDHTNetwork.members[36] 	#packetsInTheNetwork 	1600
statistic SimphonyDHTNetwork.members[36] 	"packets statistics"
field count 2108
field mean 801.15986717268
field stddev 459.70453828267
field sum 1688845
field sqrsum 1798303485
field min 0
field max 1599
attr type  int
bin	-INF	0
bin	-40	0
bin	-39	0
bin	-38	0
bin	-37	0
bin	-36	0
bin	-35	0
bin	-34	0
bin	-33	0
bin	-32	0
bin	-31	0
bin	-30	0
bin	-29	0
bin	-28	0
bin	-27	0
bin	-26	0
bin	-25	0
bin	-24	0
bin	-23	0
bin	-22	0
bin	-21	0
bin	-20	0
bin	-19	0
bin	-18	0
bin	-17	0
bin	-16	0
bin	-15	0
bin	-14	0
bin	-13	0
bin	-12	0
bin	-11	0
bin	-10	0
bin	-9	0
bin	-8	0
bin	-7	0
bin	-6	0
bin	-5	0
bin	-4	0
bin	-3	0
bin	-2	0
bin	-1	0
bin	0	1
bin	1	2
bin	2	1
bin	3	1
bin	4	2
bin	5	1
bin	6	1
bin	7	1
bin	8	2
bin	9	1
bin	10	1
bin	11	1
bin	12	2
bin	13	1
bin	14	1
bin	15	2
bin	16	1
bin	17	1
bin	18	2
bin	19	1
bin	20	1
bin	21	1
bin	22	2
bin	23	1
bin	24	2
bin	25	1
bin	26	1
bin	27	2
bin	28	1
bin	29	1
bin	30	2
bin	31	1
bin	32	1
bin	33	1
bin	34	1
bin	35	2
bin	36	1
bin	37	1
bin	38	1
bin	39	2
bin	40	1
bin	41	1
bin	42	2
bin	43	1
bin	44	1
bin	45	2
bin	46	1
bin	47	1
bin	48	1
bin	49	1
bin	50	1
bin	51	1
bin	52	2
bin	53	1
bin	54	1
bin	55	1
bin	56	2
bin	57	1
bin	58	1
bin	59	2
bin	60	1
bin	61	1
bin	62	2
bin	63	1
bin	64	1
bin	65	1
bin	66	2
bin	67	1
bin	68	1
bin	69	1
bin	70	2
bin	71	1
bin	72	1
bin	73	1
bin	74	1
bin	75	1
bin	76	1
bin	77	1
bin	78	1
bin	79	2
bin	80	1
bin	81	1
bin	82	2
bin	83	1
bin	84	1
bin	85	2
bin	86	1
bin	87	1
bin	88	1
bin	89	1
bin	90	1
bin	91	2
bin	92	2
bin	93	1
bin	94	2
bin	95	1
bin	96	1
bin	97	1
bin	98	2
bin	99	1
bin	100	1
bin	101	1
bin	102	2
bin	103	1
bin	104	1
bin	105	1
bin	106	2
bin	107	1
bin	108	1
bin	109	1
bin	110	2
bin	111	1
bin	112	1
bin	113	2
bin	114	1
bin	115	1
bin	116	2
bin	117	1
bin	118	1
bin	119	1957
scalar SimphonyDHTNetwork.members[37] 	#packetsInTheNetwork 	553
statistic SimphonyDHTNetwork.members[37] 	"packets statistics"
field count 695
field mean 275.2071942446
field stddev 159.4234847775
field sum 191269
field sqrsum 70277203
field min 0
field max 552
attr type  int
bin	-INF	0
bin	-41	0
bin	-40	0
bin	-39	0
bin	-38	0
bin	-37	0
bin	-36	0
bin	-35	0
bin	-34	0
bin	-33	0
bin	-32	0
bin	-31	0
bin	-30	0
bin	-29	0
bin	-28	0
bin	-27	0
bin	-26	0
bin	-25	0
bin	-24	0
bin	-23	0
bin	-22	0
bin	-21	0
bin	-20	0
bin	-19	0
bin	-18	0
bin	-17	0
bin	-16	0
bin	-15	0
bin	-14	0
bin	-13	0
bin	-12	0
bin	-11	0
bin	-10	0
bin	-9	0
bin	-8	0
bin	-7	0
bin	-6	0
bin	-5	0
bin	-4	0
bin	-3	0
bin	-2	0
bin	-1	0
bin	0	1
bin	1	1
bin	2	1
bin	3	2
bin	4	1
bin	5	1
bin	6	1
bin	7	2
bin	8	1
bin	9	1
bin	10	1
bin	11	2
bin	12	1
bin	13	1
bin	14	1
bin	15	1
bin	16	1
bin	17	1
bin	18	1
bin	19	2
bin	20	1
bin	21	1
bin	22	2
bin	23	1
bin	24	1
bin	25	1
bin	26	1
bin	27	1
bin	28	1
bin	29	1
bin	30	2
bin	31	1
bin	32	1
bin	33	1
bin	34	1
bin	35	1
bin	36	1
bin	37	1
bin	38	2
bin	39	1
bin	40	1
bin	41	1
bin	42	2
bin	43	1
bin	44	1
bin	45	2
bin	46	1
bin	47	1
bin	48	2
bin	49	1
bin	50	1
bin	51	1
bin	52	2
bin	53	1
bin	54	1
bin	55	2
bin	56	1
bin	57	1
bin	58	2
bin	59	1
bin	60	1
bin	61	2
bin	62	1
bin	63	1
bin	64	1
bin	65	1
bin	66	1
bin	67	1
bin	68	2
bin	69	1
bin	70	1
bin	71	2
bin	72	1
bin	73	1
bin	74	2
bin	75	1
bin	76	1
bin	77	1
bin	78	1
bin	79	2
bin	80	1
bin	81	1
bin	82	2
bin	83	1
bin	84	1
bin	85	2
bin	86	1
bin	87	1
bin	88	2
bin	89	1
bin	90	1
bin	91	1
bin	92	2
bin	93	1
bin	94	2
bin	95	2
bin	96	2
bin	97	1
bin	98	1
bin	99	2
bin	100	1
bin	101	1
bin	102	2
bin	103	1
bin	104	1
bin	105	1
bin	106	2
bin	107	1
bin	108	1
bin	109	1
bin	110	1
bin	111	2
bin	112	1
bin	113	1
bin	114	2
bin	115	1
bin	116	1
bin	117	2
bin	118	1
bin	119	1
bin	120	2
bin	121	1
bin	122	541
scalar SimphonyDHTNetwork.members[38] 	#packetsInTheNetwork 	1060
statistic SimphonyDHTNetwork.members[38] 	"packets statistics"
field count 1385
field mean 533.82310469314
field stddev 304.63132230513
field sum 739345
field sqrsum 523114979
field min 0
field max 1059
attr type  int
bin	-INF	0
bin	-39	0
bin	-38	0
bin	-37	0
bin	-36	0
bin	-35	0
bin	-34	0
bin	-33	0
bin	-32	0
bin	-31	0
bin	-30	0
bin	-29	0
bin	-28	0
bin	-27	0
bin	-26	0
bin	-25	0
bin	-24	0
bin	-23	0
bin	-22	0
bin	-21	0
bin	-20	0
bin	-19	0
bin	-18	0
bin	-17	0
bin	-16	0
bin	-15	0
bin	-14	0
bin	-13	0
bin	-12	0
bin	-11	0
bin	-10	0
bin	-9	0
bin	-8	0
bin	-7	0
bin	-6	0
bin	-5	0
bin	-4	0
bin	-3	0
bin	-2	0
bin	-1	0
bin	0	1
bin	1	2
bin	2	1
bin	3	1
bin	4	1
bin	5	2
bin	6	1
bin	7	1
bin	8	1
bin	9	1
bin	10	1
bin	11	1
bin	12	1
bin	13	2
bin	14	1
bin	15	1
bin	16	1
bin	17	1
bin	18	2
bin	19	1
bin	20	1
bin	21	2
bin	22	1
bin	23	1
bin	24	2
bin	25	1
bin	26	1
bin	27	2
bin	28	1
bin	29	1
bin	30	1
bin	31	2
bin	32	1
bin	33	1
bin	34	2
bin	35	1
bin	36	1
bin	37	1
bin	38	2
bin	39	1
bin	40	1
bin	41	2
bin	42	1
bin	43	1
bin	44	2
bin	45	1
bin	46	1
bin	47	2
bin	48	1
bin	49	1
bin	50	1
bin	51	2
bin	52	1
bin	53	1
bin	54	2
bin	55	1
bin	56	1
bin	57	2
bin	58	1
bin	59	1
bin	60	1
bin	61	2
bin	62	1
bin	63	1
bin	64	2
bin	65	1
bin	66	1
bin	67	1
bin	68	1
bin	69	2
bin	70	1
bin	71	1
bin	72	1
bin	73	2
bin	74	1
bin	75	1
bin	76	1
bin	77	2
bin	78	1
bin	79	1
bin	80	1
bin	81	1
bin	82	1
bin	83	2
bin	84	1
bin	85	1
bin	86	2
bin	87	1
bin	88	0
bin	89	2
bin	90	2
bin	91	2
bin	92	1
bin	93	1
bin	94	2
bin	95	1
bin	96	1
bin	97	2
bin	98	1
bin	99	1
bin	100	1
bin	101	1
bin	102	1
bin	103	2
bin	104	1
bin	105	1
bin	106	1
bin	107	1
bin	108	2
bin	109	1
bin	110	1
bin	111	1
bin	112	2
bin	113	1
bin	114	1
bin	115	2
bin	116	1
bin	117	1237
scalar SimphonyDHTNetwork.members[39] 	#packetsInTheNetwork 	669
statistic SimphonyDHTNetwork.members[39] 	"packets statistics"
field count 790
field mean 323.74683544304
field stddev 192.74390295308
field sum 255760
field sqrsum 112113008
field min 0
field max 668
attr type  int
bin	-INF	0
bin	-40	0
bin	-39	0
bin	-38	0
bin	-37	0
bin	-36	0
bin	-35	0
bin	-34	0
bin	-33	0
bin	-32	0
bin	-31	0
bin	-30	0
bin	-29	0
bin	-28	0
bin	-27	0
bin	-26	0
bin	-25	0
bin	-24	0
bin	-23	0
bin	-22	0
bin	-21	0
bin	-20	0
bin	-19	0
bin	-18	0
bin	-17	0
bin	-16	0
bin	-15	0
bin	-14	0
bin	-13	0
bin	-12	0
bin	-11	0
bin	-10	0
bin	-9	0
bin	-8	0
bin	-7	0
bin	-6	0
bin	-5	0
bin	-4	0
bin	-3	0
bin	-2	0
bin	-1	0
bin	0	1
bin	1	2
bin	2	1
bin	3	1
bin	4	2
bin	5	1
bin	6	1
bin	7	2
bin	8	1
bin	9	1
bin	10	1
bin	11	2
bin	12	1
bin	13	1
bin	14	2
bin	15	1
bin	16	1
bin	17	2
bin	18	1
bin	19	1
bin	20	2
bin	21	1
bin	22	1
bin	23	2
bin	24	1
bin	25	1
bin	26	1
bin	27	1
bin	28	1
bin	29	1
bin	30	1
bin	31	2
bin	32	1
bin	33	1
bin	34	1
bin	35	1
bin	36	2
bin	37	1
bin	38	1
bin	39	1
bin	40	2
bin	41	1
bin	42	1
bin	43	1
bin	44	2
bin	45	1
bin	46	1
bin	47	2
bin	48	1
bin	49	1
bin	50	2
bin	51	1
bin	52	1
bin	53	1
bin	54	1
bin	55	1
bin	56	2
bin	57	1
bin	58	1
bin	59	2
bin	60	1
bin	61	1
bin	62	1
bin	63	1
bin	64	1
bin	65	1
bin	66	1
bin	67	1
bin	68	2
bin	69	1
bin	70	1
bin	71	2
bin	72	1
bin	73	1
bin	74	1
bin	75	2
bin	76	1
bin	77	1
bin	78	1
bin	79	2
bin	80	1
bin	81	1
bin	82	2
bin	83	1
bin	84	1
bin	85	1
bin	86	2
bin	87	1
bin	88	1
bin	89	1
bin	90	2
bin	91	1
bin	92	1
bin	93	2
bin	94	1
bin	95	1
bin	96	2
bin	97	1
bin	98	1
bin	99	2
bin	100	1
bin	101	1
bin	102	1
bin	103	1
bin	104	1
bin	105	1
bin	106	1
bin	107	1
bin	108	1
bin	109	1
bin	110	2
bin	111	1
bin	112	1
bin	113	2
bin	114	1
bin	115	1
bin	116	2
bin	117	1
bin	118	1
bin	119	642
scalar SimphonyDHTNetwork.members[40] 	#packetsInTheNetwork 	1237
statistic SimphonyDHTNetwork.members[40] 	"packets statistics"
field count 1564
field mean 624.59654731458
field stddev 356.27380114573
field sum 976869
field sqrsum 808542191
field min 0
field max 1236
attr type  int
bin	-INF	0
bin	-40	0
bin	-39	0
bin	-38	0
bin	-37	0
bin	-36	0
bin	-35	0
bin	-34	0
bin	-33	0
bin	-32	0
bin	-31	0
bin	-30	0
bin	-29	0
bin	-28	0
bin	-27	0
bin	-26	0
bin	-25	0
bin	-24	0
bin	-23	0
bin	-22	0
bin	-21	0
bin	-20	0
bin	-19	0
bin	-18	0
bin	-17	0
bin	-16	0
bin	-15	0
bin	-14	0
bin	-13	0
bin	-12	0
bin	-11	0
bin	-10	0
bin	-9	0
bin	-8	0
bin	-7	0
bin	-6	0
bin	-5	0
bin	-4	0
bin	-3	0
bin	-2	0
bin	-1	0
bin	0	1
bin	1	1
bin	2	2
bin	3	1
bin	4	1
bin	5	2
bin	6	1
bin	7	1
bin	8	1
bin	9	2
bin	10	1
bin	11	1
bin	12	2
bin	13	1
bin	14	1
bin	15	1
bin	16	1
bin	17	2
bin	18	1
bin	19	1
bin	20	2
bin	21	1
bin	22	1
bin	23	1
bin	24	1
bin	25	2
bin	26	1
bin	27	1
bin	28	2
bin	29	1
bin	30	1
bin	31	2
bin	32	1
bin	33	1
bin	34	1
bin	35	2
bin	36	1
bin	37	1
bin	38	2
bin	39	1
bin	40	1
bin	41	1
bin	42	1
bin	43	1
bin	44	1
bin	45	1
bin	46	2
bin	47	1
bin	48	1
bin	49	2
bin	50	1
bin	51	1
bin	52	1
bin	53	1
bin	54	1
bin	55	2
bin	56	1
bin	57	1
bin	58	1
bin	59	1
bin	60	1
bin	61	2
bin	62	1
bin	63	1
bin	64	2
bin	65	1
bin	66	1
bin	67	2
bin	68	1
bin	69	1
bin	70	2
bin	71	1
bin	72	1
bin	73	2
bin	74	1
bin	75	1
bin	76	1
bin	77	1
bin	78	1
bin	79	2
bin	80	1
bin	81	1
bin	82	2
bin	83	1
bin	84	1
bin	85	1
bin	86	2
bin	87	1
bin	88	1
bin	89	1
bin	90	2
bin	91	1
bin	92	1
bin	93	1
bin	94	1
bin	95	1
bin	96	1
bin	97	1
bin	98	2
bin	99	1
bin	100	1
bin	101	2
bin	102	1
bin	103	1
bin	104	1
bin	105	1
bin	106	2
bin	107	1
bin	108	1
bin	109	2
bin	110	1
bin	111	1
bin	112	2
bin	113	1
bin	114	1
bin	115	2
bin	116	1
bin	117	1
bin	118	2
bin	119	1415
scalar SimphonyDHTNetwork.members[41] 	#packetsInTheNetwork 	943
statistic SimphonyDHTNetwork.members[41] 	"packets statistics"
field count 1215
field mean 476.44526748971
field stddev 270.96234336919
field sum 578881
field sqrsum 364937711
field min 0
field max 942
attr type  int
bin	-INF	0
bin	-40	0
bin	-39	0
bin	-38	0
bin	-37	0
bin	-36	0
bin	-35	0
bin	-34	0
bin	-33	0
bin	-32	0
bin	-31	0
bin	-30	0
bin	-29	0
bin	-28	0
bin	-27	0
bin	-26	0
bin	-25	0
bin	-24	0
bin	-23	0
bin	-22	0
bin	-21	0
bin	-20	0
bin	-19	0
bin	-18	0
bin	-17	0
bin	-16	0
bin	-15	0
bin	-14	0
bin	-13	0
bin	-12	0
bin	-11	0
bin	-10	0
bin	-9	0
bin	-8	0
bin	-7	0
bin	-6	0
bin	-5	0
bin	-4	0
bin	-3	0
bin	-2	0
bin	-1	0
bin	0	1
bin	1	1
bin	2	2
bin	3	1
bin	4	1
bin	5	1
bin	6	1
bin	7	1
bin	8	1
bin	9	2
bin	10	1
bin	11	1
bin	12	2
bin	13	1
bin	14	1
bin	15	2
bin	16	1
bin	17	1
bin	18	2
bin	19	1
bin	20	1
bin	21	2
bin	22	1
bin	23	1
bin	24	1
bin	25	1
bin	26	1
bin	27	1
bin	28	1
bin	29	1
bin	30	1
bin	31	1
bin	32	2
bin	33	1
bin	34	1
bin	35	1
bin	36	1
bin	37	2
bin	38	1
bin	39	1
bin	40	2
bin	41	1
bin	42	1
bin	43	2
bin	44	1
bin	45	1
bin	46	2
bin	47	1
bin	48	1
bin	49	2
bin	50	1
bin	51	1
bin	52	1
bin	53	1
bin	54	1
bin	55	2
bin	56	1
bin	57	1
bin	58	2
bin	59	1
bin	60	1
bin	61	2
bin	62	1
bin	63	1
bin	64	2
bin	65	1
bin	66	1
bin	67	2
bin	68	1
bin	69	1
bin	70	2
bin	71	1
bin	72	1
bin	73	2
bin	74	1
bin	75	1
bin	76	2
bin	77	1
bin	78	1
bin	79	1
bin	80	1
bin	81	2
bin	82	1
bin	83	1
bin	84	1
bin	85	1
bin	86	1
bin	87	2
bin	88	1
bin	89	1
bin	90	1
bin	91	1
bin	92	1
bin	93	1
bin	94	1
bin	95	1
bin	96	1
bin	97	1
bin	98	2
bin	99	1
bin	100	1
bin	101	1
bin	102	2
bin	103	1
bin	104	1
bin	105	1
bin	106	2
bin	107	1
bin	108	1
bin	109	2
bin	110	1
bin	111	1
bin	112	2
bin	113	1
bin	114	1
bin	115	1
bin	116	2
bin	117	1
bin	118	1
bin	119	1068
scalar SimphonyDHTNetwork.members[42] 	#packetsInTheNetwork 	540
statistic SimphonyDHTNetwork.members[42] 	"packets statistics"
field count 694
field mean 271.21325648415
field stddev 154.94584278485
field sum 188222
field sqrsum 67685994
field min 0
field max 539
attr type  int
bin	-INF	0
bin	-40	0
bin	-39	0
bin	-38	0
bin	-37	0
bin	-36	0
bin	-35	0
bin	-34	0
bin	-33	0
bin	-32	0
bin	-31	0
bin	-30	0
bin	-29	0
bin	-28	0
bin	-27	0
bin	-26	0
bin	-25	0
bin	-24	0
bin	-23	0
bin	-22	0
bin	-21	0
bin	-20	0
bin	-19	0
bin	-18	0
bin	-17	0
bin	-16	0
bin	-15	0
bin	-14	0
bin	-13	0
bin	-12	0
bin	-11	0
bin	-10	0
bin	-9	0
bin	-8	0
bin	-7	0
bin	-6	0
bin	-5	0
bin	-4	0
bin	-3	0
bin	-2	0
bin	-1	0
bin	0	1
bin	1	1
bin	2	2
bin	3	1
bin	4	1
bin	5	2
bin	6	1
bin	7	1
bin	8	2
bin	9	1
bin	10	1
bin	11	1
bin	12	2
bin	13	1
bin	14	1
bin	15	1
bin	16	2
bin	17	1
bin	18	1
bin	19	2
bin	20	1
bin	21	1
bin	22	1
bin	23	1
bin	24	1
bin	25	2
bin	26	1
bin	27	1
bin	28	2
bin	29	1
bin	30	1
bin	31	1
bin	32	2
bin	33	1
bin	34	1
bin	35	2
bin	36	1
bin	37	1
bin	38	2
bin	39	1
bin	40	1
bin	41	2
bin	42	1
bin	43	1
bin	44	2
bin	45	1
bin	46	1
bin	47	1
bin	48	1
bin	49	1
bin	50	2
bin	51	1
bin	52	1
bin	53	2
bin	54	1
bin	55	1
bin	56	1
bin	57	1
bin	58	1
bin	59	1
bin	60	2
bin	61	1
bin	62	1
bin	63	2
bin	64	1
bin	65	1
bin	66	2
bin	67	1
bin	68	1
bin	69	1
bin	70	1
bin	71	1
bin	72	1
bin	73	1
bin	74	1
bin	75	1
bin	76	2
bin	77	1
bin	78	1
bin	79	2
bin	80	1
bin	81	1
bin	82	1
bin	83	1
bin	84	1
bin	85	1
bin	86	2
bin	87	1
bin	88	1
bin	89	2
bin	90	1
bin	91	1
bin	92	1
bin	93	1
bin	94	1
bin	95	1
bin	96	1
bin	97	2
bin	98	1
bin	99	1
bin	100	2
bin	101	1
bin	102	1
bin	103	2
bin	104	1
bin	105	1
bin	106	2
bin	107	1
bin	108	1
bin	109	2
bin	110	1
bin	111	1
bin	112	1
bin	113	1
bin	114	1
bin	115	2
bin	116	1
bin	117	1
bin	118	2
bin	119	546
scalar SimphonyDHTNetwork.members[43] 	#packetsInTheNetwork 	1393
statistic SimphonyDHTNetwork.members[43] 	"packets statistics"
field count 1824
field mean 691.96875
field stddev 400.08238264278
field sum 1262151
field sqrsum 1165169209
field min 0
field max 1392
attr type  int
bin	-INF	0
bin	-38	0
bin	-37	0
bin	-36	0
bin	-35	0
bin	-34	0
bin	-33	0
bin	-32	0
bin	-31	0
bin	-30	0
bin	-29	0
bin	-28	0
bin	-27	0
bin	-26	0
bin	-25	0
bin	-24	0
bin	-23	0
bin	-22	0
bin	-21	0
bin	-20	0
bin	-19	0
bin	-18	0
bin	-17	0
bin	-16	0
bin	-15	0
bin	-14	0
bin	-13	0
bin	-12	0
bin	-11	0
bin	-10	0
bin	-9	0
bin	-8	0
bin	-7	0
bin	-6	0
bin	-5	0
bin	-4	0
bin	-3	0
bin	-2	0
bin	-1	0
bin	0	1
bin	1	2
bin	2	1
bin	3	1
bin	4	2
bin	5	1
bin	6	1
bin	7	2
bin	8	1
bin	9	1
bin	10	1
bin	11	2
bin	12	1
bin	13	1
bin	14	2
bin	15	1
bin	16	1
bin	17	2
bin	18	1
bin	19	1
bin	20	2
bin	21	1
bin	22	1
bin	23	1
bin	24	2
bin	25	1
bin	26	1
bin	27	2
bin	28	1
bin	29	1
bin	30	2
bin	31	1
bin	32	1
bin	33	2
bin	34	1
bin	35	1
bin	36	2
bin	37	1
bin	38	1
bin	39	2
bin	40	1
bin	41	1
bin	42	2
bin	43	1
bin	44	1
bin	45	2
bin	46	1
bin	47	1
bin	48	1
bin	49	2
bin	50	1
bin	51	1
bin	52	1
bin	53	1
bin	54	1
bin	55	1
bin	56	2
bin	57	1
bin	58	1
bin	59	2
bin	60	1
bin	61	1
bin	62	2
bin	63	1
bin	64	2
bin	65	1
bin	66	1
bin	67	1
bin	68	2
bin	69	1
bin	70	1
bin	71	1
bin	72	1
bin	73	1
bin	74	2
bin	75	2
bin	76	1
bin	77	2
bin	78	1
bin	79	1
bin	80	1
bin	81	2
bin	82	1
bin	83	1
bin	84	1
bin	85	2
bin	86	1
bin	87	1
bin	88	2
bin	89	1
bin	90	1
bin	91	2
bin	92	1
bin	93	1
bin	94	2
bin	95	1
bin	96	1
bin	97	2
bin	98	1
bin	99	1
bin	100	2
bin	101	1
bin	102	1
bin	103	2
bin	104	1
bin	105	1
bin	106	2
bin	107	1
bin	108	1
bin	109	2
bin	110	1
bin	111	1
bin	112	2
bin	113	1
bin	114	1675
scalar SimphonyDHTNetwork.members[44] 	#packetsInTheNetwork 	726
statistic SimphonyDHTNetwork.members[44] 	"packets statistics"
field count 864
field mean 362.05208333333
field stddev 212.46969290046
field sum 312813
field sqrsum 152213327
field min 0
field max 725
attr type  int
bin	-INF	0
bin	-40	0
bin	-39	0
bin	-38	0
bin	-37	0
bin	-36	0
bin	-35	0
bin	-34	0
bin	-33	0
bin	-32	0
bin	-31	0
bin	-30	0
bin	-29	0
bin	-28	0
bin	-27	0
bin	-26	0
bin	-25	0
bin	-24	0
bin	-23	0
bin	-22	0
bin	-21	0
bin	-20	0
bin	-19	0
bin	-18	0
bin	-17	0
bin	-16	0
bin	-15	0
bin	-14	0
bin	-13	0
bin	-12	0
bin	-11	0
bin	-10	0
bin	-9	0
bin	-8	0
bin	-7	0
bin	-6	0
bin	-5	0
bin	-4	0
bin	-3	0
bin	-2	0
bin	-1	0
bin	0	1
bin	1	2
bin	2	1
bin	3	1
bin	4	1
bin	5	1
bin	6	1
bin	7	2
bin	8	1
bin	9	1
bin	10	1
bin	11	1
bin	12	1
bin	13	1
bin	14	2
bin	15	1
bin	16	1
bin	17	1
bin	18	1
bin	19	1
bin	20	1
bin	21	1
bin	22	1
bin	23	1
bin	24	1
bin	25	2
bin	26	1
bin	27	1
bin	28	2
bin	29	1
bin	30	1
bin	31	2
bin	32	1
bin	33	1
bin	34	1
bin	35	1
bin	36	2
bin	37	1
bin	38	1
bin	39	1
bin	40	1
bin	41	2
bin	42	1
bin	43	1
bin	44	1
bin	45	2
bin	46	1
bin	47	1
bin	48	1
bin	49	1
bin	50	2
bin	51	1
bin	52	2
bin	53	2
bin	54	1
bin	55	1
bin	56	1
bin	57	2
bin	58	1
bin	59	1
bin	60	2
bin	61	1
bin	62	1
bin	63	1
bin	64	1
bin	65	1
bin	66	2
bin	67	1
bin	68	1
bin	69	2
bin	70	1
bin	71	1
bin	72	2
bin	73	1
bin	74	1
bin	75	2
bin	76	1
bin	77	1
bin	78	2
bin	79	1
bin	80	1
bin	81	2
bin	82	1
bin	83	1
bin	84	1
bin	85	1
bin	86	1
bin	87	1
bin	88	1
bin	89	1
bin	90	2
bin	91	1
bin	92	1
bin	93	1
bin	94	1
bin	95	1
bin	96	1
bin	97	2
bin	98	1
bin	99	1
bin	100	1
bin	101	1
bin	102	1
bin	103	2
bin	104	1
bin	105	1
bin	106	2
bin	107	1
bin	108	1
bin	109	1
bin	110	2
bin	111	1
bin	112	1
bin	113	2
bin	114	1
bin	115	1
bin	116	2
bin	117	1
bin	118	1
bin	119	2
bin	120	716
scalar SimphonyDHTNetwork.members[45] 	#packetsInTheNetwork 	1089
statistic SimphonyDHTNetwork.members[45] 	"packets statistics"
field count 1410
field mean 543.49645390071
[...]
bin	13	1
bin	14	2
bin	15	1
bin	16	1
bin	17	1
bin	18	2
bin	19	2
bin	20	1
bin	21	1
bin	22	2
bin	23	1
bin	24	0
bin	25	0
bin	26	0
bin	27	0
bin	28	0
bin	29	0
bin	30	0
bin	31	0
bin	32	0
bin	33	0
bin	34	0
bin	35	0
scalar SimphonyDHTNetwork.members[2016] 	#packetsInTheNetwork 	31
statistic SimphonyDHTNetwork.members[2016] 	"packets statistics"
field count 38
field mean 16.236842105263
field stddev 8.3712319818121
field sum 617
field sqrsum 12611
field min 0
field max 30
attr type  int
bin	-INF	0
bin	-15	0
bin	-14	0
bin	-13	0
bin	-12	0
bin	-11	0
bin	-10	0
bin	-9	0
bin	-8	0
bin	-7	0
bin	-6	0
bin	-5	0
bin	-4	0
bin	-3	0
bin	-2	0
bin	-1	0
bin	0	1
bin	1	0
bin	2	0
bin	3	1
bin	4	3
bin	5	0
bin	6	0
bin	7	1
bin	8	2
bin	9	1
bin	10	2
bin	11	1
bin	12	2
bin	13	1
bin	14	2
bin	15	1
bin	16	1
bin	17	1
bin	18	2
bin	19	2
bin	20	1
bin	21	1
bin	22	2
bin	23	1
bin	24	1
bin	25	1
bin	26	2
bin	27	1
bin	28	1
bin	29	2
bin	30	1
bin	31	0
bin	32	0
bin	33	0
bin	34	0
bin	35	0
bin	36	0
bin	37	0
bin	38	0
bin	39	0
bin	40	0
bin	41	0
bin	42	0
bin	43	0
bin	44	0
bin	45	0
scalar SimphonyDHTNetwork.members[2017] 	#packetsInTheNetwork 	13
statistic SimphonyDHTNetwork.members[2017] 	"packets statistics"
field count 15
field mean 7.4
field stddev 3.6800621112771
field sum 111
field sqrsum 1011
field min 0
field max 12
attr type  int
bin	-INF	0
bin	-6	0
bin	-5	0
bin	-4	0
bin	-3	0
bin	-2	0
bin	-1	0
bin	0	1
bin	1	0
bin	2	0
bin	3	1
bin	4	3
bin	5	0
bin	6	0
bin	7	2
bin	8	1
bin	9	2
bin	10	1
bin	11	2
bin	12	2
bin	13	0
bin	14	0
bin	15	0
bin	16	0
bin	17	0
bin	18	0
scalar SimphonyDHTNetwork.members[2018] 	#packetsInTheNetwork 	12
statistic SimphonyDHTNetwork.members[2018] 	"packets statistics"
field count 14
field mean 7.0714285714286
field stddev 3.5833865742701
field sum 99
field sqrsum 867
field min 0
field max 12
attr type  int
bin	-INF	0
bin	-6	0
bin	-5	0
bin	-4	0
bin	-3	0
bin	-2	0
bin	-1	0
bin	0	1
bin	1	0
bin	2	0
bin	3	1
bin	4	3
bin	5	0
bin	6	0
bin	7	2
bin	8	1
bin	9	2
bin	10	1
bin	11	2
bin	12	1
bin	13	0
bin	14	0
bin	15	0
bin	16	0
bin	17	0
bin	18	0
scalar SimphonyDHTNetwork.members[2019] 	#packetsInTheNetwork 	13
statistic SimphonyDHTNetwork.members[2019] 	"packets statistics"
field count 15
field mean 7.4
field stddev 3.6800621112771
field sum 111
field sqrsum 1011
field min 0
field max 12
attr type  int
bin	-INF	0
bin	-6	0
bin	-5	0
bin	-4	0
bin	-3	0
bin	-2	0
bin	-1	0
bin	0	1
bin	1	0
bin	2	0
bin	3	1
bin	4	3
bin	5	0
bin	6	0
bin	7	2
bin	8	1
bin	9	2
bin	10	1
bin	11	2
bin	12	2
bin	13	0
bin	14	0
bin	15	0
bin	16	0
bin	17	0
bin	18	0
scalar SimphonyDHTNetwork.members[2020] 	#packetsInTheNetwork 	28
statistic SimphonyDHTNetwork.members[2020] 	"packets statistics"
field count 34
field mean 14.441176470588
field stddev 7.548594797872
field sum 491
field sqrsum 8971
field min 0
field max 27
attr type  int
bin	-INF	0
bin	-14	0
bin	-13	0
bin	-12	0
bin	-11	0
bin	-10	0
bin	-9	0
bin	-8	0
bin	-7	0
bin	-6	0
bin	-5	0
bin	-4	0
bin	-3	0
bin	-2	0
bin	-1	0
bin	0	1
bin	1	0
bin	2	0
bin	3	1
bin	4	3
bin	5	0
bin	6	0
bin	7	2
bin	8	1
bin	9	2
bin	10	1
bin	11	2
bin	12	2
bin	13	1
bin	14	2
bin	15	1
bin	16	1
bin	17	1
bin	18	2
bin	19	1
bin	20	1
bin	21	1
bin	22	2
bin	23	1
bin	24	1
bin	25	1
bin	26	2
bin	27	1
bin	28	0
bin	29	0
bin	30	0
bin	31	0
bin	32	0
bin	33	0
bin	34	0
bin	35	0
bin	36	0
bin	37	0
bin	38	0
bin	39	0
bin	40	0
bin	41	0
scalar SimphonyDHTNetwork.members[2021] 	#packetsInTheNetwork 	22
statistic SimphonyDHTNetwork.members[2021] 	"packets statistics"
field count 24
field mean 11
field stddev 5.7785209481169
field sum 264
field sqrsum 3672
field min 0
field max 21
attr type  int
bin	-INF	0
bin	-11	0
bin	-10	0
bin	-9	0
bin	-8	0
bin	-7	0
bin	-6	0
bin	-5	0
bin	-4	0
bin	-3	0
bin	-2	0
bin	-1	0
bin	0	1
bin	1	0
bin	2	0
bin	3	1
bin	4	3
bin	5	0
bin	6	0
bin	7	2
bin	8	1
bin	9	2
bin	10	1
bin	11	2
bin	12	2
bin	13	1
bin	14	1
bin	15	1
bin	16	1
bin	17	1
bin	18	1
bin	19	1
bin	20	1
bin	21	1
bin	22	0
bin	23	0
bin	24	0
bin	25	0
bin	26	0
bin	27	0
bin	28	0
bin	29	0
bin	30	0
bin	31	0
bin	32	0
scalar SimphonyDHTNetwork.members[2022] 	#packetsInTheNetwork 	12
statistic SimphonyDHTNetwork.members[2022] 	"packets statistics"
field count 14
field mean 7.0714285714286
field stddev 3.5833865742701
field sum 99
field sqrsum 867
field min 0
field max 12
attr type  int
bin	-INF	0
bin	-6	0
bin	-5	0
bin	-4	0
bin	-3	0
bin	-2	0
bin	-1	0
bin	0	1
bin	1	0
bin	2	0
bin	3	1
bin	4	3
bin	5	0
bin	6	0
bin	7	2
bin	8	1
bin	9	2
bin	10	1
bin	11	2
bin	12	1
bin	13	0
bin	14	0
bin	15	0
bin	16	0
bin	17	0
bin	18	0
scalar SimphonyDHTNetwork.members[2023] 	#packetsInTheNetwork 	29
statistic SimphonyDHTNetwork.members[2023] 	"packets statistics"
field count 35
field mean 15.228571428571
field stddev 7.8030375468777
field sum 533
field sqrsum 10187
field min 0
field max 28
attr type  int
bin	-INF	0
bin	-14	0
bin	-13	0
bin	-12	0
bin	-11	0
bin	-10	0
bin	-9	0
bin	-8	0
bin	-7	0
bin	-6	0
bin	-5	0
bin	-4	0
bin	-3	0
bin	-2	0
bin	-1	0
bin	0	1
bin	1	0
bin	2	0
bin	3	1
bin	4	3
bin	5	0
bin	6	0
bin	7	1
bin	8	2
bin	9	1
bin	10	2
bin	11	1
bin	12	2
bin	13	1
bin	14	1
bin	15	1
bin	16	2
bin	17	1
bin	18	2
bin	19	2
bin	20	1
bin	21	1
bin	22	1
bin	23	2
bin	24	1
bin	25	1
bin	26	1
bin	27	2
bin	28	1
bin	29	0
bin	30	0
bin	31	0
bin	32	0
bin	33	0
bin	34	0
bin	35	0
bin	36	0
bin	37	0
bin	38	0
bin	39	0
bin	40	0
bin	41	0
bin	42	0
scalar SimphonyDHTNetwork.members[2024] 	#packetsInTheNetwork 	12
statistic SimphonyDHTNetwork.members[2024] 	"packets statistics"
field count 14
field mean 7.0714285714286
field stddev 3.5833865742701
field sum 99
field sqrsum 867
field min 0
field max 12
attr type  int
bin	-INF	0
bin	-6	0
bin	-5	0
bin	-4	0
bin	-3	0
bin	-2	0
bin	-1	0
bin	0	1
bin	1	0
bin	2	0
bin	3	1
bin	4	3
bin	5	0
bin	6	0
bin	7	2
bin	8	1
bin	9	2
bin	10	1
bin	11	2
bin	12	1
bin	13	0
bin	14	0
bin	15	0
bin	16	0
bin	17	0
bin	18	0
scalar SimphonyDHTNetwork.members[2025] 	#packetsInTheNetwork 	12
statistic SimphonyDHTNetwork.members[2025] 	"packets statistics"
field count 14
field mean 7.0714285714286
field stddev 3.5833865742701
field sum 99
field sqrsum 867
field min 0
field max 12
attr type  int
bin	-INF	0
bin	-6	0
bin	-5	0
bin	-4	0
bin	-3	0
bin	-2	0
bin	-1	0
bin	0	1
bin	1	0
bin	2	0
bin	3	1
bin	4	3
bin	5	0
bin	6	0
bin	7	2
bin	8	1
bin	9	2
bin	10	1
bin	11	2
bin	12	1
bin	13	0
bin	14	0
bin	15	0
bin	16	0
bin	17	0
bin	18	0
scalar SimphonyDHTNetwork.members[2026] 	#packetsInTheNetwork 	16
statistic SimphonyDHTNetwork.members[2026] 	"packets statistics"
field count 19
field mean 8.7894736842105
field stddev 4.2762775526856
field sum 167
field sqrsum 1797
field min 0
field max 15
attr type  int
bin	-INF	0
bin	-8	0
bin	-7	0
bin	-6	0
bin	-5	0
bin	-4	0
bin	-3	0
bin	-2	0
bin	-1	0
bin	0	1
bin	1	0
bin	2	0
bin	3	1
bin	4	3
bin	5	0
bin	6	0
bin	7	2
bin	8	1
bin	9	2
bin	10	1
bin	11	2
bin	12	2
bin	13	1
bin	14	2
bin	15	1
bin	16	0
bin	17	0
bin	18	0
bin	19	0
bin	20	0
bin	21	0
bin	22	0
bin	23	0
scalar SimphonyDHTNetwork.members[2027] 	#packetsInTheNetwork 	17
statistic SimphonyDHTNetwork.members[2027] 	"packets statistics"
field count 20
field mean 9.15
field stddev 4.4635954353555
field sum 183
field sqrsum 2053
field min 0
field max 16
attr type  int
bin	-INF	0
bin	-8	0
bin	-7	0
bin	-6	0
bin	-5	0
bin	-4	0
bin	-3	0
bin	-2	0
bin	-1	0
bin	0	1
bin	1	0
bin	2	0
bin	3	1
bin	4	3
bin	5	0
bin	6	0
bin	7	2
bin	8	1
bin	9	2
bin	10	1
bin	11	2
bin	12	2
bin	13	1
bin	14	2
bin	15	1
bin	16	1
bin	17	0
bin	18	0
bin	19	0
bin	20	0
bin	21	0
bin	22	0
bin	23	0
bin	24	0
scalar SimphonyDHTNetwork.members[2028] 	#packetsInTheNetwork 	12
statistic SimphonyDHTNetwork.members[2028] 	"packets statistics"
field count 14
field mean 7.0714285714286
field stddev 3.5833865742701
field sum 99
field sqrsum 867
field min 0
field max 12
attr type  int
bin	-INF	0
bin	-6	0
bin	-5	0
bin	-4	0
bin	-3	0
bin	-2	0
bin	-1	0
bin	0	1
bin	1	0
bin	2	0
bin	3	1
bin	4	3
bin	5	0
bin	6	0
bin	7	2
bin	8	1
bin	9	2
bin	10	1
bin	11	2
bin	12	1
bin	13	0
bin	14	0
bin	15	0
bin	16	0
bin	17	0
bin	18	0
scalar SimphonyDHTNetwork.members[2029] 	#packetsInTheNetwork 	24
statistic SimphonyDHTNetwork.members[2029] 	"packets statistics"
field count 30
field mean 12.633333333333
field stddev 6.3435187305672
field sum 379
field sqrsum 5955
field min 0
field max 23
attr type  int
bin	-INF	0
bin	-12	0
bin	-11	0
bin	-10	0
bin	-9	0
bin	-8	0
bin	-7	0
bin	-6	0
bin	-5	0
bin	-4	0
bin	-3	0
bin	-2	0
bin	-1	0
bin	0	1
bin	1	0
bin	2	0
bin	3	1
bin	4	3
bin	5	0
bin	6	0
bin	7	2
bin	8	1
bin	9	2
bin	10	1
bin	11	2
bin	12	2
bin	13	2
bin	14	1
bin	15	1
bin	16	2
bin	17	1
bin	18	1
bin	19	2
bin	20	1
bin	21	1
bin	22	2
bin	23	1
bin	24	0
bin	25	0
bin	26	0
bin	27	0
bin	28	0
bin	29	0
bin	30	0
bin	31	0
bin	32	0
bin	33	0
bin	34	0
bin	35	0
scalar SimphonyDHTNetwork.members[2030] 	#packetsInTheNetwork 	18
statistic SimphonyDHTNetwork.members[2030] 	"packets statistics"
field count 21
field mean 9.6666666666667
field stddev 4.8614126890579
field sum 203
field sqrsum 2435
field min 0
field max 17
attr type  int
bin	-INF	0
bin	-9	0
bin	-8	0
bin	-7	0
bin	-6	0
bin	-5	0
bin	-4	0
bin	-3	0
bin	-2	0
bin	-1	0
bin	0	1
bin	1	0
bin	2	0
bin	3	1
bin	4	3
bin	5	0
bin	6	0
bin	7	2
bin	8	1
bin	9	2
bin	10	1
bin	11	2
bin	12	2
bin	13	1
bin	14	1
bin	15	1
bin	16	1
bin	17	2
bin	18	0
bin	19	0
bin	20	0
bin	21	0
bin	22	0
bin	23	0
bin	24	0
bin	25	0
bin	26	0
scalar SimphonyDHTNetwork.members[2031] 	#packetsInTheNetwork 	28
statistic SimphonyDHTNetwork.members[2031] 	"packets statistics"
field count 34
field mean 14.970588235294
field stddev 7.5977879321336
field sum 509
field sqrsum 9525
field min 0
field max 27
attr type  int
bin	-INF	0
bin	-14	0
bin	-13	0
bin	-12	0
bin	-11	0
bin	-10	0
bin	-9	0
bin	-8	0
bin	-7	0
bin	-6	0
bin	-5	0
bin	-4	0
bin	-3	0
bin	-2	0
bin	-1	0
bin	0	1
bin	1	0
bin	2	0
bin	3	1
bin	4	3
bin	5	0
bin	6	0
bin	7	1
bin	8	2
bin	9	1
bin	10	2
bin	11	1
bin	12	1
bin	13	1
bin	14	2
bin	15	1
bin	16	2
bin	17	1
bin	18	2
bin	19	1
bin	20	1
bin	21	1
bin	22	2
bin	23	2
bin	24	1
bin	25	1
bin	26	2
bin	27	1
bin	28	0
bin	29	0
bin	30	0
bin	31	0
bin	32	0
bin	33	0
bin	34	0
bin	35	0
bin	36	0
bin	37	0
bin	38	0
bin	39	0
bin	40	0
bin	41	0
scalar SimphonyDHTNetwork.members[2032] 	#packetsInTheNetwork 	76
statistic SimphonyDHTNetwork.members[2032] 	"packets statistics"
field count 96
field mean 38.052083333333
field stddev 21.446810481388
field sum 3653
field sqrsum 182701
field min 0
field max 75
attr type  int
bin	-INF	0
bin	-38	0
bin	-37	0
bin	-36	0
bin	-35	0
bin	-34	0
bin	-33	0
bin	-32	0
bin	-31	0
bin	-30	0
bin	-29	0
bin	-28	0
bin	-27	0
bin	-26	0
bin	-25	0
bin	-24	0
bin	-23	0
bin	-22	0
bin	-21	0
bin	-20	0
bin	-19	0
bin	-18	0
bin	-17	0
bin	-16	0
bin	-15	0
bin	-14	0
bin	-13	0
bin	-12	0
bin	-11	0
bin	-10	0
bin	-9	0
bin	-8	0
bin	-7	0
bin	-6	0
bin	-5	0
bin	-4	0
bin	-3	0
bin	-2	0
bin	-1	0
bin	0	1
bin	1	0
bin	2	0
bin	3	1
bin	4	3
bin	5	0
bin	6	0
bin	7	2
bin	8	1
bin	9	2
bin	10	1
bin	11	1
bin	12	2
bin	13	2
bin	14	1
bin	15	2
bin	16	1
bin	17	1
bin	18	2
bin	19	1
bin	20	2
bin	21	1
bin	22	2
bin	23	1
bin	24	1
bin	25	1
bin	26	1
bin	27	2
bin	28	1
bin	29	1
bin	30	2
bin	31	1
bin	32	2
bin	33	1
bin	34	1
bin	35	1
bin	36	2
bin	37	1
bin	38	1
bin	39	1
bin	40	2
bin	41	1
bin	42	1
bin	43	1
bin	44	2
bin	45	1
bin	46	1
bin	47	2
bin	48	1
bin	49	1
bin	50	1
bin	51	2
bin	52	1
bin	53	1
bin	54	1
bin	55	2
bin	56	1
bin	57	1
bin	58	2
bin	59	1
bin	60	1
bin	61	1
bin	62	2
bin	63	1
bin	64	1
bin	65	1
bin	66	2
bin	67	1
bin	68	1
bin	69	1
bin	70	2
bin	71	1
bin	72	1
bin	73	1
bin	74	1
bin	75	2
bin	76	0
bin	77	0
bin	78	0
bin	79	0
bin	80	0
bin	81	0
bin	82	0
bin	83	0
bin	84	0
bin	85	0
bin	86	0
bin	87	0
bin	88	0
bin	89	0
bin	90	0
bin	91	0
bin	92	0
bin	93	0
bin	94	0
bin	95	0
bin	96	0
bin	97	0
bin	98	0
bin	99	0
bin	100	0
bin	101	0
bin	102	0
bin	103	0
bin	104	0
bin	105	0
bin	106	0
bin	107	0
bin	108	0
bin	109	0
bin	110	0
bin	111	0
bin	112	0
bin	113	0
scalar SimphonyDHTNetwork.members[2033] 	#packetsInTheNetwork 	13
statistic SimphonyDHTNetwork.members[2033] 	"packets statistics"
field count 15
field mean 7.4
field stddev 3.6800621112771
field sum 111
field sqrsum 1011
field min 0
field max 12
attr type  int
bin	-INF	0
bin	-6	0
bin	-5	0
bin	-4	0
bin	-3	0
bin	-2	0
bin	-1	0
bin	0	1
bin	1	0
bin	2	0
bin	3	1
bin	4	3
bin	5	0
bin	6	0
bin	7	2
bin	8	1
bin	9	2
bin	10	1
bin	11	2
bin	12	2
bin	13	0
bin	14	0
bin	15	0
bin	16	0
bin	17	0
bin	18	0
scalar SimphonyDHTNetwork.members[2034] 	#packetsInTheNetwork 	12
statistic SimphonyDHTNetwork.members[2034] 	"packets statistics"
field count 14
field mean 7.0714285714286
field stddev 3.5833865742701
field sum 99
field sqrsum 867
field min 0
field max 12
attr type  int
bin	-INF	0
bin	-6	0
bin	-5	0
bin	-4	0
bin	-3	0
bin	-2	0
bin	-1	0
bin	0	1
bin	1	0
bin	2	0
bin	3	1
bin	4	3
bin	5	0
bin	6	0
bin	7	2
bin	8	1
bin	9	2
bin	10	1
bin	11	2
bin	12	1
bin	13	0
bin	14	0
bin	15	0
bin	16	0
bin	17	0
bin	18	0
scalar SimphonyDHTNetwork.members[2035] 	#packetsInTheNetwork 	24
statistic SimphonyDHTNetwork.members[2035] 	"packets statistics"
field count 29
field mean 13.137931034483
field stddev 6.6479005167638
field sum 381
field sqrsum 6243
field min 0
field max 23
attr type  int
bin	-INF	0
bin	-12	0
bin	-11	0
bin	-10	0
bin	-9	0
bin	-8	0
bin	-7	0
bin	-6	0
bin	-5	0
bin	-4	0
bin	-3	0
bin	-2	0
bin	-1	0
bin	0	1
bin	1	0
bin	2	0
bin	3	1
bin	4	3
bin	5	0
bin	6	0
bin	7	1
bin	8	2
bin	9	1
bin	10	2
bin	11	1
bin	12	1
bin	13	1
bin	14	2
bin	15	1
bin	16	2
bin	17	1
bin	18	2
bin	19	1
bin	20	1
bin	21	1
bin	22	2
bin	23	2
bin	24	0
bin	25	0
bin	26	0
bin	27	0
bin	28	0
bin	29	0
bin	30	0
bin	31	0
bin	32	0
bin	33	0
bin	34	0
bin	35	0
scalar SimphonyDHTNetwork.members[2036] 	#packetsInTheNetwork 	16
statistic SimphonyDHTNetwork.members[2036] 	"packets statistics"
field count 19
field mean 8.7894736842105
field stddev 4.2762775526856
field sum 167
field sqrsum 1797
field min 0
field max 15
attr type  int
bin	-INF	0
bin	-8	0
bin	-7	0
bin	-6	0
bin	-5	0
bin	-4	0
bin	-3	0
bin	-2	0
bin	-1	0
bin	0	1
bin	1	0
bin	2	0
bin	3	1
bin	4	3
bin	5	0
bin	6	0
bin	7	2
bin	8	1
bin	9	2
bin	10	1
bin	11	2
bin	12	2
bin	13	1
bin	14	2
bin	15	1
bin	16	0
bin	17	0
bin	18	0
bin	19	0
bin	20	0
bin	21	0
bin	22	0
bin	23	0
scalar SimphonyDHTNetwork.members[2037] 	#packetsInTheNetwork 	12
statistic SimphonyDHTNetwork.members[2037] 	"packets statistics"
field count 14
field mean 7.0714285714286
field stddev 3.5833865742701
field sum 99
field sqrsum 867
field min 0
field max 12
attr type  int
bin	-INF	0
bin	-6	0
bin	-5	0
bin	-4	0
bin	-3	0
bin	-2	0
bin	-1	0
bin	0	1
bin	1	0
bin	2	0
bin	3	1
bin	4	3
bin	5	0
bin	6	0
bin	7	2
bin	8	1
bin	9	2
bin	10	1
bin	11	2
bin	12	1
bin	13	0
bin	14	0
bin	15	0
bin	16	0
bin	17	0
bin	18	0
scalar SimphonyDHTNetwork.members[2038] 	#packetsInTheNetwork 	12
statistic SimphonyDHTNetwork.members[2038] 	"packets statistics"
field count 14
field mean 7.0714285714286
field stddev 3.5833865742701
field sum 99
field sqrsum 867
field min 0
field max 12
attr type  int
bin	-INF	0
bin	-6	0
bin	-5	0
bin	-4	0
bin	-3	0
bin	-2	0
bin	-1	0
bin	0	1
bin	1	0
bin	2	0
bin	3	1
bin	4	3
bin	5	0
bin	6	0
bin	7	2
bin	8	1
bin	9	2
bin	10	1
bin	11	2
bin	12	1
bin	13	0
bin	14	0
bin	15	0
bin	16	0
bin	17	0
bin	18	0
scalar SimphonyDHTNetwork.members[2039] 	#packetsInTheNetwork 	15
statistic SimphonyDHTNetwork.members[2039] 	"packets statistics"
field count 18
field mean 8.3888888888889
field stddev 4.045896816004
field sum 151
field sqrsum 1545
field min 0
field max 14
attr type  int
bin	-INF	0
bin	-7	0
bin	-6	0
bin	-5	0
bin	-4	0
bin	-3	0
bin	-2	0
bin	-1	0
bin	0	1
bin	1	0
bin	2	0
bin	3	1
bin	4	3
bin	5	0
bin	6	0
bin	7	2
bin	8	1
bin	9	2
bin	10	1
bin	11	2
bin	12	2
bin	13	2
bin	14	1
bin	15	0
bin	16	0
bin	17	0
bin	18	0
bin	19	0
bin	20	0
bin	21	0
scalar SimphonyDHTNetwork.members[2040] 	#packetsInTheNetwork 	12
statistic SimphonyDHTNetwork.members[2040] 	"packets statistics"
field count 14
field mean 7.0714285714286
field stddev 3.5833865742701
field sum 99
field sqrsum 867
field min 0
field max 12
attr type  int
bin	-INF	0
bin	-6	0
bin	-5	0
bin	-4	0
bin	-3	0
bin	-2	0
bin	-1	0
bin	0	1
bin	1	0
bin	2	0
bin	3	1
bin	4	3
bin	5	0
bin	6	0
bin	7	2
bin	8	1
bin	9	2
bin	10	1
bin	11	2
bin	12	1
bin	13	0
bin	14	0
bin	15	0
bin	16	0
bin	17	0
bin	18	0
scalar SimphonyDHTNetwork.members[2041] 	#packetsInTheNetwork 	18
statistic SimphonyDHTNetwork.members[2041] 	"packets statistics"
field count 21
field mean 10
field stddev 5.0199601592045
field sum 210
field sqrsum 2604
field min 0
field max 17
attr type  int
bin	-INF	0
bin	-9	0
bin	-8	0
bin	-7	0
bin	-6	0
bin	-5	0
bin	-4	0
bin	-3	0
bin	-2	0
bin	-1	0
bin	0	1
bin	1	0
bin	2	0
bin	3	1
bin	4	3
bin	5	0
bin	6	0
bin	7	1
bin	8	2
bin	9	1
bin	10	2
bin	11	1
bin	12	2
bin	13	1
bin	14	1
bin	15	1
bin	16	2
bin	17	2
bin	18	0
bin	19	0
bin	20	0
bin	21	0
bin	22	0
bin	23	0
bin	24	0
bin	25	0
bin	26	0
scalar SimphonyDHTNetwork.members[2042] 	#packetsInTheNetwork 	19
statistic SimphonyDHTNetwork.members[2042] 	"packets statistics"
field count 23
field mean 10.173913043478
field stddev 4.9877319851543
field sum 234
field sqrsum 2928
field min 0
field max 18
attr type  int
bin	-INF	0
bin	-9	0
bin	-8	0
bin	-7	0
bin	-6	0
bin	-5	0
bin	-4	0
bin	-3	0
bin	-2	0
bin	-1	0
bin	0	1
bin	1	0
bin	2	0
bin	3	1
bin	4	3
bin	5	0
bin	6	0
bin	7	2
bin	8	1
bin	9	2
bin	10	1
bin	11	2
bin	12	2
bin	13	2
bin	14	1
bin	15	1
bin	16	1
bin	17	2
bin	18	1
bin	19	0
bin	20	0
bin	21	0
bin	22	0
bin	23	0
bin	24	0
bin	25	0
bin	26	0
bin	27	0
scalar SimphonyDHTNetwork.members[2043] 	#packetsInTheNetwork 	24
statistic SimphonyDHTNetwork.members[2043] 	"packets statistics"
field count 29
field mean 13.275862068966
field stddev 6.8133092008223
field sum 385
field sqrsum 6411
field min 0
field max 24
attr type  int
bin	-INF	0
bin	-12	0
bin	-11	0
bin	-10	0
bin	-9	0
bin	-8	0
bin	-7	0
bin	-6	0
bin	-5	0
bin	-4	0
bin	-3	0
bin	-2	0
bin	-1	0
bin	0	1
bin	1	0
bin	2	0
bin	3	1
bin	4	3
bin	5	0
bin	6	0
bin	7	1
bin	8	2
bin	9	1
bin	10	2
bin	11	1
bin	12	1
bin	13	1
bin	14	2
bin	15	1
bin	16	2
bin	17	1
bin	18	1
bin	19	1
bin	20	2
bin	21	1
bin	22	1
bin	23	2
bin	24	1
bin	25	0
bin	26	0
bin	27	0
bin	28	0
bin	29	0
bin	30	0
bin	31	0
bin	32	0
bin	33	0
bin	34	0
bin	35	0
bin	36	0
scalar SimphonyDHTNetwork.members[2044] 	#packetsInTheNetwork 	13
statistic SimphonyDHTNetwork.members[2044] 	"packets statistics"
field count 15
field mean 7.4
field stddev 3.6800621112771
field sum 111
field sqrsum 1011
field min 0
field max 12
attr type  int
bin	-INF	0
bin	-6	0
bin	-5	0
bin	-4	0
bin	-3	0
bin	-2	0
bin	-1	0
bin	0	1
bin	1	0
bin	2	0
bin	3	1
bin	4	3
bin	5	0
bin	6	0
bin	7	2
bin	8	1
bin	9	2
bin	10	1
bin	11	2
bin	12	2
bin	13	0
bin	14	0
bin	15	0
bin	16	0
bin	17	0
bin	18	0
scalar SimphonyDHTNetwork.members[2045] 	#packetsInTheNetwork 	12
statistic SimphonyDHTNetwork.members[2045] 	"packets statistics"
field count 14
field mean 7.0714285714286
field stddev 3.5833865742701
field sum 99
field sqrsum 867
field min 0
field max 12
attr type  int
bin	-INF	0
bin	-6	0
bin	-5	0
bin	-4	0
bin	-3	0
bin	-2	0
bin	-1	0
bin	0	1
bin	1	0
bin	2	0
bin	3	1
bin	4	3
bin	5	0
bin	6	0
bin	7	2
bin	8	1
bin	9	2
bin	10	1
bin	11	2
bin	12	1
bin	13	0
bin	14	0
bin	15	0
bin	16	0
bin	17	0
bin	18	0
scalar SimphonyDHTNetwork.members[2046] 	#packetsInTheNetwork 	12
statistic SimphonyDHTNetwork.members[2046] 	"packets statistics"
field count 14
field mean 7.0714285714286
field stddev 3.5833865742701
field sum 99
field sqrsum 867
field min 0
field max 12
attr type  int
bin	-INF	0
bin	-6	0
bin	-5	0
bin	-4	0
bin	-3	0
bin	-2	0
bin	-1	0
bin	0	1
bin	1	0
bin	2	0
bin	3	1
bin	4	3
bin	5	0
bin	6	0
bin	7	2
bin	8	1
bin	9	2
bin	10	1
bin	11	2
bin	12	1
bin	13	0
bin	14	0
bin	15	0
bin	16	0
bin	17	0
bin	18	0
scalar SimphonyDHTNetwork.members[2047] 	#packetsInTheNetwork 	21
statistic SimphonyDHTNetwork.members[2047] 	"packets statistics"
field count 25
field mean 11.64
field stddev 5.8799092963526
field sum 291
field sqrsum 4217
field min 0
field max 21
attr type  int
bin	-INF	0
bin	-11	0
bin	-10	0
bin	-9	0
bin	-8	0
bin	-7	0
bin	-6	0
bin	-5	0
bin	-4	0
bin	-3	0
bin	-2	0
bin	-1	0
bin	0	1
bin	1	0
bin	2	0
bin	3	1
bin	4	3
bin	5	0
bin	6	0
bin	7	1
bin	8	2
bin	9	1
bin	10	2
bin	11	1
bin	12	1
bin	13	1
bin	14	2
bin	15	1
bin	16	2
bin	17	1
bin	18	2
bin	19	1
bin	20	1
bin	21	1
bin	22	0
bin	23	0
bin	24	0
bin	25	0
bin	26	0
bin	27	0
bin	28	0
bin	29	0
bin	30	0
bin	31	0
bin	32	0
