version 2
run allAtOnce-75-20130122-19:26:31-3209
attr configname allAtOnce
attr datetime 20130122-19:26:31
attr experiment allAtOnce
attr inifile omnetpp.ini
attr iterationvars "$0=256, $1=intuniform(100, 500)"
attr iterationvars2 "$0=256, $1=intuniform(100, 500), $repetition=0"
attr measurement "$0=256, $1=intuniform(100, 500)"
attr network SimphonyDHTNetwork
attr processid 3209
attr repetition 0
attr replication #0
attr resultdir results
attr runnumber 75
attr seedset 75

scalar SimphonyDHTNetwork.members[0] 	#packetsInTheNetwork 	624
statistic SimphonyDHTNetwork.members[0] 	"packets statistics"
field count 672
field mean 314.8630952381
field stddev 181.23872247052
field sum 211588
field sqrsum 88661908
field min 0
field max 623
attr type  int
bin	-INF	0
bin	-46	0
bin	-45	0
bin	-44	0
bin	-43	0
bin	-42	0
bin	-41	0
bin	-40	0
bin	-39	0
bin	-38	0
bin	-37	0
bin	-36	0
bin	-35	0
bin	-34	0
bin	-33	0
bin	-32	0
bin	-31	0
bin	-30	0
bin	-29	0
bin	-28	0
bin	-27	0
bin	-26	0
bin	-25	0
bin	-24	0
bin	-23	0
bin	-22	0
bin	-21	0
bin	-20	0
bin	-19	0
bin	-18	0
bin	-17	0
bin	-16	0
bin	-15	0
bin	-14	0
bin	-13	0
bin	-12	0
bin	-11	0
bin	-10	0
bin	-9	0
bin	-8	0
bin	-7	0
bin	-6	0
bin	-5	0
bin	-4	0
bin	-3	0
bin	-2	0
bin	-1	0
bin	0	1
bin	1	1
bin	2	1
bin	3	2
bin	4	0
bin	5	0
bin	6	0
bin	7	0
bin	8	5
bin	9	1
bin	10	1
bin	11	1
bin	12	1
bin	13	1
bin	14	2
bin	15	0
bin	16	0
bin	17	0
bin	18	0
bin	19	5
bin	20	1
bin	21	1
bin	22	1
bin	23	1
bin	24	1
bin	25	1
bin	26	1
bin	27	1
bin	28	2
bin	29	0
bin	30	0
bin	31	0
bin	32	0
bin	33	5
bin	34	1
bin	35	1
bin	36	1
bin	37	1
bin	38	1
bin	39	2
bin	40	0
bin	41	0
bin	42	0
bin	43	0
bin	44	5
bin	45	1
bin	46	1
bin	47	1
bin	48	1
bin	49	1
bin	50	1
bin	51	1
bin	52	1
bin	53	2
bin	54	0
bin	55	0
bin	56	0
bin	57	0
bin	58	5
bin	59	1
bin	60	1
bin	61	1
bin	62	1
bin	63	1
bin	64	1
bin	65	1
bin	66	1
bin	67	1
bin	68	1
bin	69	2
bin	70	0
bin	71	0
bin	72	0
bin	73	0
bin	74	5
bin	75	1
bin	76	1
bin	77	1
bin	78	1
bin	79	1
bin	80	1
bin	81	1
bin	82	1
bin	83	1
bin	84	1
bin	85	1
bin	86	1
bin	87	2
bin	88	0
bin	89	0
bin	90	0
bin	91	0
bin	92	5
bin	93	1
bin	94	1
bin	95	1
bin	96	1
bin	97	2
bin	98	0
bin	99	0
bin	100	0
bin	101	0
bin	102	5
bin	103	1
bin	104	1
bin	105	1
bin	106	1
bin	107	1
bin	108	1
bin	109	1
bin	110	2
bin	111	0
bin	112	0
bin	113	0
bin	114	0
bin	115	5
bin	116	1
bin	117	1
bin	118	1
bin	119	1
bin	120	2
bin	121	0
bin	122	0
bin	123	0
bin	124	0
bin	125	5
bin	126	1
bin	127	1
bin	128	1
bin	129	1
bin	130	1
bin	131	1
bin	132	1
bin	133	1
bin	134	2
bin	135	0
bin	136	0
bin	137	0
bin	138	526
scalar SimphonyDHTNetwork.members[1] 	#packetsInTheNetwork 	1745
statistic SimphonyDHTNetwork.members[1] 	"packets statistics"
field count 1916
field mean 866.94102296451
field stddev 503.54244136277
field sum 1661059
field sqrsum 1925597995
field min 0
field max 1744
attr type  int
bin	-INF	0
bin	-46	0
bin	-45	0
bin	-44	0
bin	-43	0
bin	-42	0
bin	-41	0
bin	-40	0
bin	-39	0
bin	-38	0
bin	-37	0
bin	-36	0
bin	-35	0
bin	-34	0
bin	-33	0
bin	-32	0
bin	-31	0
bin	-30	0
bin	-29	0
bin	-28	0
bin	-27	0
bin	-26	0
bin	-25	0
bin	-24	0
bin	-23	0
bin	-22	0
bin	-21	0
bin	-20	0
bin	-19	0
bin	-18	0
bin	-17	0
bin	-16	0
bin	-15	0
bin	-14	0
bin	-13	0
bin	-12	0
bin	-11	0
bin	-10	0
bin	-9	0
bin	-8	0
bin	-7	0
bin	-6	0
bin	-5	0
bin	-4	0
bin	-3	0
bin	-2	0
bin	-1	0
bin	0	1
bin	1	1
bin	2	2
bin	3	0
bin	4	0
bin	5	0
bin	6	0
bin	7	5
bin	8	1
bin	9	1
bin	10	1
bin	11	1
bin	12	1
bin	13	1
bin	14	1
bin	15	2
bin	16	0
bin	17	0
bin	18	0
bin	19	0
bin	20	5
bin	21	1
bin	22	1
bin	23	1
bin	24	1
bin	25	1
bin	26	1
bin	27	1
bin	28	1
bin	29	1
bin	30	1
bin	31	2
bin	32	0
bin	33	0
bin	34	0
bin	35	0
bin	36	5
bin	37	1
bin	38	1
bin	39	1
bin	40	1
bin	41	1
bin	42	2
bin	43	0
bin	44	0
bin	45	0
bin	46	0
bin	47	5
bin	48	1
bin	49	1
bin	50	1
bin	51	1
bin	52	1
bin	53	2
bin	54	1
bin	55	1
bin	56	1
bin	57	1
bin	58	1
bin	59	1
bin	60	1
bin	61	2
bin	62	1
bin	63	1
bin	64	1
bin	65	2
bin	66	0
bin	67	0
bin	68	0
bin	69	0
bin	70	0
bin	71	0
bin	72	7
bin	73	1
bin	74	1
bin	75	1
bin	76	2
bin	77	1
bin	78	1
bin	79	1
bin	80	1
bin	81	1
bin	82	1
bin	83	1
bin	84	1
bin	85	1
bin	86	1
bin	87	1
bin	88	1
bin	89	1
bin	90	1
bin	91	1
bin	92	1
bin	93	1
bin	94	1
bin	95	1
bin	96	1
bin	97	2
bin	98	0
bin	99	0
bin	100	0
bin	101	0
bin	102	0
bin	103	0
bin	104	0
bin	105	8
bin	106	1
bin	107	1
bin	108	1
bin	109	1
bin	110	1
bin	111	1
bin	112	1
bin	113	1
bin	114	1
bin	115	1
bin	116	1
bin	117	1
bin	118	1
bin	119	1
bin	120	1
bin	121	1
bin	122	1
bin	123	1
bin	124	1
bin	125	1
bin	126	1
bin	127	1
bin	128	2
bin	129	0
bin	130	0
bin	131	0
bin	132	0
bin	133	0
bin	134	0
bin	135	0
bin	136	8
bin	137	1769
scalar SimphonyDHTNetwork.members[2] 	#packetsInTheNetwork 	3138
statistic SimphonyDHTNetwork.members[2] 	"packets statistics"
field count 3387
field mean 1566.9397697077
field stddev 906.59902069306
field sum 5307225
field sqrsum 11099129081
field min 0
field max 3137
attr type  int
bin	-INF	0
bin	-45	0
bin	-44	0
bin	-43	0
bin	-42	0
bin	-41	0
bin	-40	0
bin	-39	0
bin	-38	0
bin	-37	0
bin	-36	0
bin	-35	0
bin	-34	0
bin	-33	0
bin	-32	0
bin	-31	0
bin	-30	0
bin	-29	0
bin	-28	0
bin	-27	0
bin	-26	0
bin	-25	0
bin	-24	0
bin	-23	0
bin	-22	0
bin	-21	0
bin	-20	0
bin	-19	0
bin	-18	0
bin	-17	0
bin	-16	0
bin	-15	0
bin	-14	0
bin	-13	0
bin	-12	0
bin	-11	0
bin	-10	0
bin	-9	0
bin	-8	0
bin	-7	0
bin	-6	0
bin	-5	0
bin	-4	0
bin	-3	0
bin	-2	0
bin	-1	0
bin	0	1
bin	1	1
bin	2	1
bin	3	1
bin	4	2
bin	5	1
bin	6	1
bin	7	2
bin	8	0
bin	9	0
bin	10	0
bin	11	0
bin	12	0
bin	13	6
bin	14	1
bin	15	1
bin	16	1
bin	17	1
bin	18	1
bin	19	1
bin	20	1
bin	21	1
bin	22	1
bin	23	2
bin	24	1
bin	25	1
bin	26	2
bin	27	1
bin	28	1
bin	29	1
bin	30	1
bin	31	2
bin	32	0
bin	33	0
bin	34	0
bin	35	0
bin	36	0
bin	37	0
bin	38	7
bin	39	1
bin	40	1
bin	41	1
bin	42	1
bin	43	1
bin	44	2
bin	45	0
bin	46	0
bin	47	0
bin	48	0
bin	49	0
bin	50	0
bin	51	7
bin	52	1
bin	53	1
bin	54	1
bin	55	1
bin	56	1
bin	57	2
bin	58	0
bin	59	0
bin	60	0
bin	61	0
bin	62	0
bin	63	0
bin	64	7
bin	65	1
bin	66	1
bin	67	1
bin	68	1
bin	69	1
bin	70	1
bin	71	1
bin	72	2
bin	73	0
bin	74	0
bin	75	0
bin	76	0
bin	77	0
bin	78	0
bin	79	7
bin	80	1
bin	81	1
bin	82	1
bin	83	1
bin	84	1
bin	85	1
bin	86	1
bin	87	1
bin	88	1
bin	89	2
bin	90	1
bin	91	1
bin	92	1
bin	93	1
bin	94	1
bin	95	1
bin	96	1
bin	97	1
bin	98	1
bin	99	1
bin	100	1
bin	101	1
bin	102	1
bin	103	1
bin	104	1
bin	105	1
bin	106	1
bin	107	1
bin	108	1
bin	109	2
bin	110	1
bin	111	1
bin	112	2
bin	113	1
bin	114	1
bin	115	1
bin	116	1
bin	117	1
bin	118	2
bin	119	1
bin	120	1
bin	121	1
bin	122	1
bin	123	1
bin	124	1
bin	125	1
bin	126	1
bin	127	1
bin	128	1
bin	129	1
bin	130	1
bin	131	1
bin	132	1
bin	133	1
bin	134	1
bin	135	3240
scalar SimphonyDHTNetwork.members[3] 	#packetsInTheNetwork 	3090
statistic SimphonyDHTNetwork.members[3] 	"packets statistics"
field count 3339
field mean 1547.1895777179
field stddev 893.47259784665
field sum 5166066
field sqrsum 10657586452
field min 0
field max 3089
attr type  int
bin	-INF	0
bin	-46	0
bin	-45	0
bin	-44	0
bin	-43	0
bin	-42	0
bin	-41	0
bin	-40	0
bin	-39	0
bin	-38	0
bin	-37	0
bin	-36	0
bin	-35	0
bin	-34	0
bin	-33	0
bin	-32	0
bin	-31	0
bin	-30	0
bin	-29	0
bin	-28	0
bin	-27	0
bin	-26	0
bin	-25	0
bin	-24	0
bin	-23	0
bin	-22	0
bin	-21	0
bin	-20	0
bin	-19	0
bin	-18	0
bin	-17	0
bin	-16	0
bin	-15	0
bin	-14	0
bin	-13	0
bin	-12	0
bin	-11	0
bin	-10	0
bin	-9	0
bin	-8	0
bin	-7	0
bin	-6	0
bin	-5	0
bin	-4	0
bin	-3	0
bin	-2	0
bin	-1	0
bin	0	1
bin	1	1
bin	2	1
bin	3	1
bin	4	1
bin	5	1
bin	6	1
bin	7	1
bin	8	1
bin	9	2
bin	10	0
bin	11	0
bin	12	0
bin	13	0
bin	14	5
bin	15	1
bin	16	1
bin	17	1
bin	18	1
bin	19	2
bin	20	1
bin	21	1
bin	22	2
bin	23	0
bin	24	0
bin	25	0
bin	26	0
bin	27	0
bin	28	6
bin	29	1
bin	30	1
bin	31	1
bin	32	1
bin	33	2
bin	34	0
bin	35	0
bin	36	0
bin	37	0
bin	38	0
bin	39	6
bin	40	1
bin	41	1
bin	42	1
bin	43	1
bin	44	1
bin	45	1
bin	46	2
bin	47	0
bin	48	0
bin	49	0
bin	50	0
bin	51	0
bin	52	6
bin	53	1
bin	54	1
bin	55	1
bin	56	1
bin	57	1
bin	58	2
bin	59	0
bin	60	0
bin	61	0
bin	62	0
bin	63	0
bin	64	6
bin	65	1
bin	66	1
bin	67	1
bin	68	1
bin	69	2
bin	70	1
bin	71	1
bin	72	1
bin	73	2
bin	74	0
bin	75	0
bin	76	0
bin	77	0
bin	78	0
bin	79	0
bin	80	7
bin	81	1
bin	82	1
bin	83	1
bin	84	1
bin	85	2
bin	86	0
bin	87	0
bin	88	0
bin	89	0
bin	90	0
bin	91	0
bin	92	7
bin	93	1
bin	94	1
bin	95	1
bin	96	1
bin	97	2
bin	98	1
bin	99	1
bin	100	1
bin	101	1
bin	102	1
bin	103	1
bin	104	1
bin	105	1
bin	106	2
bin	107	1
bin	108	1
bin	109	1
bin	110	1
bin	111	1
bin	112	1
bin	113	1
bin	114	1
bin	115	2
bin	116	1
bin	117	1
bin	118	1
bin	119	1
bin	120	1
bin	121	1
bin	122	1
bin	123	1
bin	124	1
bin	125	1
bin	126	1
bin	127	3
bin	128	0
bin	129	0
bin	130	0
bin	131	0
bin	132	0
bin	133	0
bin	134	0
bin	135	1
bin	136	8
bin	137	1
bin	138	3187
scalar SimphonyDHTNetwork.members[4] 	#packetsInTheNetwork 	2310
statistic SimphonyDHTNetwork.members[4] 	"packets statistics"
field count 2509
field mean 1160.961339179
field stddev 667.35172036954
field sum 2912852
field sqrsum 4498667222
field min 0
field max 2309
attr type  int
bin	-INF	0
bin	-47	0
bin	-46	0
bin	-45	0
bin	-44	0
bin	-43	0
bin	-42	0
bin	-41	0
bin	-40	0
bin	-39	0
bin	-38	0
bin	-37	0
bin	-36	0
bin	-35	0
bin	-34	0
bin	-33	0
bin	-32	0
bin	-31	0
bin	-30	0
bin	-29	0
bin	-28	0
bin	-27	0
bin	-26	0
bin	-25	0
bin	-24	0
bin	-23	0
bin	-22	0
bin	-21	0
bin	-20	0
bin	-19	0
bin	-18	0
bin	-17	0
bin	-16	0
bin	-15	0
bin	-14	0
bin	-13	0
bin	-12	0
bin	-11	0
bin	-10	0
bin	-9	0
bin	-8	0
bin	-7	0
bin	-6	0
bin	-5	0
bin	-4	0
bin	-3	0
bin	-2	0
bin	-1	0
bin	0	1
bin	1	1
bin	2	1
bin	3	1
bin	4	1
bin	5	1
bin	6	1
bin	7	1
bin	8	1
bin	9	2
bin	10	0
bin	11	0
bin	12	0
bin	13	0
bin	14	5
bin	15	1
bin	16	1
bin	17	1
bin	18	1
bin	19	1
bin	20	2
bin	21	0
bin	22	0
bin	23	0
bin	24	0
bin	25	5
bin	26	1
bin	27	1
bin	28	1
bin	29	1
bin	30	1
bin	31	1
bin	32	2
bin	33	1
bin	34	1
bin	35	2
bin	36	0
bin	37	0
bin	38	0
bin	39	0
bin	40	0
bin	41	6
bin	42	1
bin	43	1
bin	44	1
bin	45	1
bin	46	1
bin	47	1
bin	48	1
bin	49	1
bin	50	1
bin	51	1
bin	52	1
bin	53	2
bin	54	0
bin	55	0
bin	56	0
bin	57	0
bin	58	0
bin	59	6
bin	60	1
bin	61	1
bin	62	1
bin	63	1
bin	64	2
bin	65	0
bin	66	0
bin	67	0
bin	68	0
bin	69	0
bin	70	6
bin	71	1
bin	72	1
bin	73	1
bin	74	1
bin	75	1
bin	76	1
bin	77	1
bin	78	1
bin	79	1
bin	80	1
bin	81	1
bin	82	1
bin	83	1
bin	84	1
bin	85	1
bin	86	1
bin	87	2
bin	88	0
bin	89	0
bin	90	0
bin	91	0
bin	92	0
bin	93	2
bin	94	5
bin	95	1
bin	96	1
bin	97	1
bin	98	1
bin	99	1
bin	100	1
bin	101	1
bin	102	1
bin	103	1
bin	104	1
bin	105	1
bin	106	1
bin	107	2
bin	108	0
bin	109	0
bin	110	0
bin	111	0
bin	112	0
bin	113	6
bin	114	1
bin	115	1
bin	116	1
bin	117	1
bin	118	1
bin	119	2
bin	120	0
bin	121	0
bin	122	0
bin	123	0
bin	124	0
bin	125	6
bin	126	1
bin	127	1
bin	128	1
bin	129	1
bin	130	1
bin	131	2
bin	132	0
bin	133	0
bin	134	0
bin	135	0
bin	136	0
bin	137	6
bin	138	1
bin	139	1
bin	140	1
bin	141	2358
scalar SimphonyDHTNetwork.members[5] 	#packetsInTheNetwork 	1823
statistic SimphonyDHTNetwork.members[5] 	"packets statistics"
field count 1957
field mean 908.52682677568
field stddev 526.10977351124
field sum 1777987
field sqrsum 2156753049
field min 0
field max 1822
attr type  int
bin	-INF	0
bin	-48	0
bin	-47	0
bin	-46	0
bin	-45	0
bin	-44	0
bin	-43	0
bin	-42	0
bin	-41	0
bin	-40	0
bin	-39	0
bin	-38	0
bin	-37	0
bin	-36	0
bin	-35	0
bin	-34	0
bin	-33	0
bin	-32	0
bin	-31	0
bin	-30	0
bin	-29	0
bin	-28	0
bin	-27	0
bin	-26	0
bin	-25	0
bin	-24	0
bin	-23	0
bin	-22	0
bin	-21	0
bin	-20	0
bin	-19	0
bin	-18	0
bin	-17	0
bin	-16	0
bin	-15	0
bin	-14	0
bin	-13	0
bin	-12	0
bin	-11	0
bin	-10	0
bin	-9	0
bin	-8	0
bin	-7	0
bin	-6	0
bin	-5	0
bin	-4	0
bin	-3	0
bin	-2	0
bin	-1	0
bin	0	1
bin	1	1
bin	2	1
bin	3	1
bin	4	1
bin	5	1
bin	6	2
bin	7	1
bin	8	1
bin	9	1
bin	10	1
bin	11	1
bin	12	2
bin	13	0
bin	14	0
bin	15	0
bin	16	0
bin	17	0
bin	18	6
bin	19	1
bin	20	1
bin	21	1
bin	22	1
bin	23	1
bin	24	2
bin	25	0
bin	26	0
bin	27	0
bin	28	0
bin	29	0
bin	30	6
bin	31	1
bin	32	1
bin	33	1
bin	34	1
bin	35	1
bin	36	2
bin	37	0
bin	38	0
bin	39	0
bin	40	0
bin	41	0
bin	42	6
bin	43	1
bin	44	1
bin	45	1
bin	46	1
bin	47	1
bin	48	1
bin	49	1
bin	50	1
bin	51	1
bin	52	1
bin	53	1
bin	54	1
bin	55	1
bin	56	1
bin	57	2
bin	58	0
bin	59	0
bin	60	0
bin	61	0
bin	62	0
bin	63	6
bin	64	1
bin	65	1
bin	66	1
bin	67	1
bin	68	1
bin	69	1
bin	70	1
bin	71	2
bin	72	1
bin	73	1
bin	74	1
bin	75	1
bin	76	1
bin	77	1
bin	78	1
bin	79	1
bin	80	1
bin	81	1
bin	82	1
bin	83	1
bin	84	1
bin	85	1
bin	86	1
bin	87	1
bin	88	1
bin	89	2
bin	90	0
bin	91	0
bin	92	0
bin	93	0
bin	94	0
bin	95	0
bin	96	7
bin	97	1
bin	98	1
bin	99	1
bin	100	1
bin	101	1
bin	102	2
bin	103	0
bin	104	0
bin	105	0
bin	106	0
bin	107	0
bin	108	0
bin	109	7
bin	110	1
bin	111	1
bin	112	1
bin	113	1
bin	114	2
bin	115	0
bin	116	0
bin	117	0
bin	118	0
bin	119	0
bin	120	0
bin	121	1
bin	122	7
bin	123	1
bin	124	1
bin	125	1
bin	126	1
bin	127	1
bin	128	1
bin	129	1
bin	130	1
bin	131	1
bin	132	1
bin	133	2
bin	134	0
bin	135	0
bin	136	0
bin	137	0
bin	138	0
bin	139	0
bin	140	7
bin	141	1
bin	142	1
bin	143	1
bin	144	1803
scalar SimphonyDHTNetwork.members[6] 	#packetsInTheNetwork 	1321
statistic SimphonyDHTNetwork.members[6] 	"packets statistics"
field count 1432
field mean 657.84706703911
field stddev 381.64021083932
field sum 942037
field sqrsum 828140355
field min 0
field max 1320
attr type  int
bin	-INF	0
bin	-46	0
bin	-45	0
bin	-44	0
bin	-43	0
bin	-42	0
bin	-41	0
bin	-40	0
bin	-39	0
bin	-38	0
bin	-37	0
bin	-36	0
bin	-35	0
bin	-34	0
bin	-33	0
bin	-32	0
bin	-31	0
bin	-30	0
bin	-29	0
bin	-28	0
bin	-27	0
bin	-26	0
bin	-25	0
bin	-24	0
bin	-23	0
bin	-22	0
bin	-21	0
bin	-20	0
bin	-19	0
bin	-18	0
bin	-17	0
bin	-16	0
bin	-15	0
bin	-14	0
bin	-13	0
bin	-12	0
bin	-11	0
bin	-10	0
bin	-9	0
bin	-8	0
bin	-7	0
bin	-6	0
bin	-5	0
bin	-4	0
bin	-3	0
bin	-2	0
bin	-1	0
bin	0	1
bin	1	1
bin	2	2
bin	3	1
bin	4	1
bin	5	1
bin	6	1
bin	7	2
bin	8	0
bin	9	0
bin	10	0
bin	11	0
bin	12	0
bin	13	6
bin	14	1
bin	15	1
bin	16	1
bin	17	1
bin	18	1
bin	19	1
bin	20	2
bin	21	0
bin	22	0
bin	23	0
bin	24	0
bin	25	0
bin	26	6
bin	27	1
bin	28	1
bin	29	1
bin	30	1
bin	31	1
bin	32	1
bin	33	2
bin	34	0
bin	35	0
bin	36	0
bin	37	0
bin	38	0
bin	39	6
bin	40	1
bin	41	1
bin	42	1
bin	43	1
bin	44	1
bin	45	1
bin	46	1
bin	47	2
bin	48	0
bin	49	0
bin	50	0
bin	51	0
bin	52	0
bin	53	6
bin	54	1
bin	55	1
bin	56	1
bin	57	1
bin	58	1
bin	59	2
bin	60	1
bin	61	1
bin	62	1
bin	63	1
bin	64	2
bin	65	1
bin	66	1
bin	67	1
bin	68	1
bin	69	1
bin	70	1
bin	71	1
bin	72	1
bin	73	1
bin	74	2
bin	75	0
bin	76	0
bin	77	0
bin	78	0
bin	79	0
bin	80	0
bin	81	0
bin	82	8
bin	83	1
bin	84	1
bin	85	1
bin	86	1
bin	87	1
bin	88	1
bin	89	1
bin	90	1
bin	91	2
bin	92	0
bin	93	0
bin	94	0
bin	95	0
bin	96	0
bin	97	0
bin	98	0
bin	99	8
bin	100	1
bin	101	1
bin	102	1
bin	103	1
bin	104	1
bin	105	1
bin	106	1
bin	107	1
bin	108	1
bin	109	2
bin	110	1
bin	111	1
bin	112	2
bin	113	1
bin	114	1
bin	115	1
bin	116	1
bin	117	1
bin	118	1
bin	119	1
bin	120	1
bin	121	1
bin	122	2
bin	123	0
bin	124	0
bin	125	0
bin	126	0
bin	127	0
bin	128	0
bin	129	0
bin	130	8
bin	131	1
bin	132	1
bin	133	1
bin	134	1
bin	135	2
bin	136	0
bin	137	1283
scalar SimphonyDHTNetwork.members[7] 	#packetsInTheNetwork 	1874
statistic SimphonyDHTNetwork.members[7] 	"packets statistics"
field count 2022
field mean 940.06627101879
field stddev 542.95057202419
field sum 1900814
field sqrsum 2382672478
field min 0
field max 1873
attr type  int
bin	-INF	0
bin	-44	0
bin	-43	0
bin	-42	0
bin	-41	0
bin	-40	0
bin	-39	0
bin	-38	0
bin	-37	0
bin	-36	0
bin	-35	0
bin	-34	0
bin	-33	0
bin	-32	0
bin	-31	0
bin	-30	0
bin	-29	0
bin	-28	0
bin	-27	0
bin	-26	0
bin	-25	0
bin	-24	0
bin	-23	0
bin	-22	0
bin	-21	0
bin	-20	0
bin	-19	0
bin	-18	0
bin	-17	0
bin	-16	0
bin	-15	0
bin	-14	0
bin	-13	0
bin	-12	0
bin	-11	0
bin	-10	0
bin	-9	0
bin	-8	0
bin	-7	0
bin	-6	0
bin	-5	0
bin	-4	0
bin	-3	0
bin	-2	0
bin	-1	0
bin	0	1
bin	1	1
bin	2	1
bin	3	1
bin	4	1
bin	5	1
bin	6	2
bin	7	0
bin	8	0
bin	9	0
bin	10	0
bin	11	5
bin	12	1
bin	13	1
bin	14	1
bin	15	1
bin	16	1
bin	17	1
bin	18	2
bin	19	2
bin	20	1
bin	21	1
bin	22	2
bin	23	0
bin	24	0
bin	25	0
bin	26	0
bin	27	5
bin	28	1
bin	29	1
bin	30	1
bin	31	1
bin	32	1
bin	33	1
bin	34	1
bin	35	1
bin	36	1
bin	37	1
bin	38	2
bin	39	2
bin	40	1
bin	41	1
bin	42	2
bin	43	0
bin	44	0
bin	45	0
bin	46	0
bin	47	5
bin	48	1
bin	49	1
bin	50	1
bin	51	1
bin	52	1
bin	53	1
bin	54	1
bin	55	2
bin	56	0
bin	57	0
bin	58	0
bin	59	0
bin	60	5
bin	61	1
bin	62	1
bin	63	1
bin	64	1
bin	65	1
bin	66	1
bin	67	1
bin	68	1
bin	69	1
bin	70	1
bin	71	1
bin	72	1
bin	73	1
bin	74	2
bin	75	0
bin	76	0
bin	77	0
bin	78	0
bin	79	5
bin	80	1
bin	81	1
bin	82	1
bin	83	1
bin	84	1
bin	85	2
bin	86	1
bin	87	1
bin	88	2
bin	89	0
bin	90	0
bin	91	0
bin	92	0
bin	93	0
bin	94	6
bin	95	1
bin	96	1
bin	97	1
bin	98	1
bin	99	1
bin	100	1
bin	101	1
bin	102	1
bin	103	2
bin	104	1
bin	105	1
bin	106	1
bin	107	1
bin	108	2
bin	109	0
bin	110	0
bin	111	0
bin	112	0
bin	113	0
bin	114	0
bin	115	7
bin	116	1
bin	117	1
bin	118	1
bin	119	1
bin	120	1
bin	121	1
bin	122	1
bin	123	1
bin	124	1
bin	125	1
bin	126	1
bin	127	1
bin	128	1
bin	129	1
bin	130	2
bin	131	1
bin	132	1876
scalar SimphonyDHTNetwork.members[8] 	#packetsInTheNetwork 	713
statistic SimphonyDHTNetwork.members[8] 	"packets statistics"
field count 782
field mean 358.40281329923
field stddev 205.46023448888
field sum 280271
field sqrsum 133418977
field min 0
field max 712
attr type  int
bin	-INF	0
bin	-46	0
bin	-45	0
bin	-44	0
bin	-43	0
bin	-42	0
bin	-41	0
bin	-40	0
bin	-39	0
bin	-38	0
bin	-37	0
bin	-36	0
bin	-35	0
bin	-34	0
bin	-33	0
bin	-32	0
bin	-31	0
bin	-30	0
bin	-29	0
bin	-28	0
bin	-27	0
bin	-26	0
bin	-25	0
bin	-24	0
bin	-23	0
bin	-22	0
bin	-21	0
bin	-20	0
bin	-19	0
bin	-18	0
bin	-17	0
bin	-16	0
bin	-15	0
bin	-14	0
bin	-13	0
bin	-12	0
bin	-11	0
bin	-10	0
bin	-9	0
bin	-8	0
bin	-7	0
bin	-6	0
bin	-5	0
bin	-4	0
bin	-3	0
bin	-2	0
bin	-1	0
bin	0	1
bin	1	1
bin	2	1
bin	3	1
bin	4	1
bin	5	1
bin	6	1
bin	7	1
bin	8	1
bin	9	2
bin	10	0
bin	11	0
bin	12	0
bin	13	0
bin	14	0
bin	15	6
bin	16	1
bin	17	1
bin	18	1
bin	19	1
bin	20	2
bin	21	1
bin	22	2
bin	23	2
bin	24	1
bin	25	1
bin	26	1
bin	27	1
bin	28	1
bin	29	1
bin	30	2
bin	31	0
bin	32	0
bin	33	0
bin	34	0
bin	35	0
bin	36	1
bin	37	6
bin	38	1
bin	39	1
bin	40	1
bin	41	1
bin	42	2
bin	43	0
bin	44	0
bin	45	0
bin	46	0
bin	47	0
bin	48	6
bin	49	1
bin	50	1
bin	51	1
bin	52	1
bin	53	1
bin	54	1
bin	55	1
bin	56	1
bin	57	1
bin	58	1
bin	59	1
bin	60	1
bin	61	1
bin	62	1
bin	63	1
bin	64	2
bin	65	0
bin	66	0
bin	67	0
bin	68	0
bin	69	0
bin	70	6
bin	71	1
bin	72	1
bin	73	1
bin	74	1
bin	75	1
bin	76	1
bin	77	1
bin	78	1
bin	79	2
bin	80	0
bin	81	0
bin	82	0
bin	83	0
bin	84	0
bin	85	6
bin	86	1
bin	87	1
bin	88	1
bin	89	1
bin	90	1
bin	91	2
bin	92	0
bin	93	0
bin	94	0
bin	95	0
bin	96	0
bin	97	6
bin	98	1
bin	99	1
bin	100	1
bin	101	1
bin	102	1
bin	103	1
bin	104	1
bin	105	1
bin	106	1
bin	107	2
bin	108	0
bin	109	0
bin	110	0
bin	111	0
bin	112	0
bin	113	6
bin	114	1
bin	115	1
bin	116	1
bin	117	1
bin	118	1
bin	119	1
bin	120	1
bin	121	2
bin	122	0
bin	123	0
bin	124	0
bin	125	0
bin	126	0
bin	127	6
bin	128	1
bin	129	1
bin	130	1
bin	131	1
bin	132	1
bin	133	2
bin	134	0
bin	135	0
bin	136	0
bin	137	636
scalar SimphonyDHTNetwork.members[9] 	#packetsInTheNetwork 	1158
statistic SimphonyDHTNetwork.members[9] 	"packets statistics"
field count 1240
field mean 578.25080645161
field stddev 333.77529014185
field sum 717031
field sqrsum 552655719
field min 0
field max 1157
attr type  int
bin	-INF	0
bin	-47	0
bin	-46	0
bin	-45	0
bin	-44	0
bin	-43	0
bin	-42	0
bin	-41	0
bin	-40	0
bin	-39	0
bin	-38	0
bin	-37	0
bin	-36	0
bin	-35	0
bin	-34	0
bin	-33	0
bin	-32	0
bin	-31	0
bin	-30	0
bin	-29	0
bin	-28	0
bin	-27	0
bin	-26	0
bin	-25	0
bin	-24	0
bin	-23	0
bin	-22	0
bin	-21	0
bin	-20	0
bin	-19	0
bin	-18	0
bin	-17	0
bin	-16	0
bin	-15	0
bin	-14	0
bin	-13	0
bin	-12	0
bin	-11	0
bin	-10	0
bin	-9	0
bin	-8	0
bin	-7	0
bin	-6	0
bin	-5	0
bin	-4	0
bin	-3	0
bin	-2	0
bin	-1	0
bin	0	1
bin	1	1
bin	2	1
bin	3	1
bin	4	1
bin	5	1
bin	6	1
bin	7	1
bin	8	1
bin	9	1
bin	10	2
bin	11	1
bin	12	1
bin	13	2
bin	14	0
bin	15	0
bin	16	0
bin	17	0
bin	18	0
bin	19	0
bin	20	0
bin	21	8
bin	22	1
bin	23	1
bin	24	1
bin	25	1
bin	26	1
bin	27	1
bin	28	1
bin	29	1
bin	30	1
bin	31	1
bin	32	1
bin	33	1
bin	34	1
bin	35	2
bin	36	0
bin	37	0
bin	38	0
bin	39	0
bin	40	0
bin	41	0
bin	42	0
bin	43	8
bin	44	1
bin	45	1
bin	46	1
bin	47	1
bin	48	2
bin	49	1
bin	50	1
bin	51	1
bin	52	1
bin	53	1
bin	54	1
bin	55	2
bin	56	0
bin	57	0
bin	58	0
bin	59	0
bin	60	0
bin	61	0
bin	62	0
bin	63	8
bin	64	1
bin	65	1
bin	66	1
bin	67	1
bin	68	2
bin	69	0
bin	70	0
bin	71	0
bin	72	0
bin	73	0
bin	74	0
bin	75	0
bin	76	8
bin	77	1
bin	78	1
bin	79	1
bin	80	1
bin	81	1
bin	82	1
bin	83	1
bin	84	1
bin	85	1
bin	86	1
bin	87	1
bin	88	1
bin	89	1
bin	90	1
bin	91	1
bin	92	1
bin	93	1
bin	94	1
bin	95	2
bin	96	0
bin	97	0
bin	98	0
bin	99	0
bin	100	0
bin	101	0
bin	102	0
bin	103	8
bin	104	1
bin	105	1
bin	106	1
bin	107	1
bin	108	2
bin	109	0
bin	110	0
bin	111	0
bin	112	0
bin	113	0
bin	114	0
bin	115	0
bin	116	8
bin	117	1
bin	118	1
bin	119	1
bin	120	1
bin	121	1
bin	122	1
bin	123	2
bin	124	2
bin	125	1
bin	126	1
bin	127	2
bin	128	0
bin	129	0
bin	130	0
bin	131	0
bin	132	0
bin	133	0
bin	134	0
bin	135	8
bin	136	1
bin	137	1
bin	138	1
bin	139	1
bin	140	1089
scalar SimphonyDHTNetwork.members[10] 	#packetsInTheNetwork 	968
statistic SimphonyDHTNetwork.members[10] 	"packets statistics"
field count 1038
field mean 485.32177263969
field stddev 278.35276336969
field sum 503764
field sqrsum 324834668
field min 0
field max 967
attr type  int
bin	-INF	0
bin	-46	0
bin	-45	0
bin	-44	0
bin	-43	0
bin	-42	0
bin	-41	0
bin	-40	0
bin	-39	0
bin	-38	0
bin	-37	0
bin	-36	0
bin	-35	0
bin	-34	0
bin	-33	0
bin	-32	0
bin	-31	0
bin	-30	0
bin	-29	0
bin	-28	0
bin	-27	0
bin	-26	0
bin	-25	0
bin	-24	0
bin	-23	0
bin	-22	0
bin	-21	0
bin	-20	0
bin	-19	0
bin	-18	0
bin	-17	0
bin	-16	0
bin	-15	0
bin	-14	0
bin	-13	0
bin	-12	0
bin	-11	0
bin	-10	0
bin	-9	0
bin	-8	0
bin	-7	0
bin	-6	0
bin	-5	0
bin	-4	0
bin	-3	0
bin	-2	0
bin	-1	0
bin	0	1
bin	1	1
bin	2	1
bin	3	1
bin	4	1
bin	5	1
bin	6	1
bin	7	1
bin	8	1
bin	9	1
bin	10	1
bin	11	1
bin	12	1
bin	13	1
bin	14	1
bin	15	2
bin	16	0
bin	17	0
bin	18	0
bin	19	0
bin	20	0
bin	21	0
bin	22	0
bin	23	8
bin	24	1
bin	25	1
bin	26	1
bin	27	1
bin	28	1
bin	29	1
bin	30	1
bin	31	1
bin	32	1
bin	33	1
bin	34	1
bin	35	1
bin	36	1
bin	37	1
bin	38	1
bin	39	2
bin	40	0
bin	41	0
bin	42	0
bin	43	0
bin	44	0
bin	45	0
bin	46	0
bin	47	8
bin	48	1
bin	49	1
bin	50	1
bin	51	1
bin	52	1
bin	53	1
bin	54	1
bin	55	1
bin	56	1
bin	57	1
bin	58	1
bin	59	1
bin	60	1
bin	61	1
bin	62	2
bin	63	0
bin	64	2
bin	65	0
bin	66	0
bin	67	0
bin	68	0
bin	69	0
bin	70	0
bin	71	0
bin	72	8
bin	73	1
bin	74	2
bin	75	1
bin	76	1
bin	77	1
bin	78	1
bin	79	1
bin	80	1
bin	81	1
bin	82	1
bin	83	2
bin	84	1
bin	85	2
bin	86	2
bin	87	1
bin	88	1
bin	89	1
bin	90	1
bin	91	1
bin	92	1
bin	93	1
bin	94	1
bin	95	2
bin	96	0
bin	97	0
bin	98	0
bin	99	0
bin	100	0
bin	101	0
bin	102	0
bin	103	8
bin	104	1
bin	105	1
bin	106	1
bin	107	1
bin	108	1
bin	109	1
bin	110	1
bin	111	1
bin	112	1
bin	113	1
bin	114	1
bin	115	1
bin	116	1
bin	117	2
bin	118	0
bin	119	0
bin	120	0
bin	121	0
bin	122	0
bin	123	0
bin	124	0
bin	125	8
bin	126	1
bin	127	1
bin	128	1
bin	129	2
bin	130	0
bin	131	0
bin	132	0
bin	133	0
bin	134	0
bin	135	0
bin	136	0
bin	137	8
bin	138	890
scalar SimphonyDHTNetwork.members[11] 	#packetsInTheNetwork 	1015
statistic SimphonyDHTNetwork.members[11] 	"packets statistics"
field count 1070
field mean 507.55981308411
field stddev 294.13718007662
field sum 543089
field sqrsum 368136483
field min 0
field max 1014
attr type  int
bin	-INF	0
bin	-46	0
bin	-45	0
bin	-44	0
bin	-43	0
bin	-42	0
bin	-41	0
bin	-40	0
bin	-39	0
bin	-38	0
bin	-37	0
bin	-36	0
bin	-35	0
bin	-34	0
bin	-33	0
bin	-32	0
bin	-31	0
bin	-30	0
bin	-29	0
bin	-28	0
bin	-27	0
bin	-26	0
bin	-25	0
bin	-24	0
bin	-23	0
bin	-22	0
bin	-21	0
bin	-20	0
bin	-19	0
bin	-18	0
bin	-17	0
bin	-16	0
bin	-15	0
bin	-14	0
bin	-13	0
bin	-12	0
bin	-11	0
bin	-10	0
bin	-9	0
bin	-8	0
bin	-7	0
bin	-6	0
bin	-5	0
bin	-4	0
bin	-3	0
bin	-2	0
bin	-1	0
bin	0	1
bin	1	1
bin	2	1
bin	3	2
bin	4	2
bin	5	1
bin	6	1
bin	7	2
bin	8	0
bin	9	0
bin	10	0
bin	11	0
bin	12	0
bin	13	0
bin	14	0
bin	15	8
bin	16	1
bin	17	1
bin	18	1
bin	19	1
bin	20	1
bin	21	2
bin	22	0
bin	23	0
bin	24	0
bin	25	0
bin	26	0
bin	27	0
bin	28	0
bin	29	8
bin	30	1
bin	31	1
bin	32	1
bin	33	1
bin	34	1
bin	35	1
bin	36	1
bin	37	1
bin	38	1
bin	39	2
bin	40	0
bin	41	0
bin	42	0
bin	43	0
bin	44	0
bin	45	0
bin	46	0
bin	47	8
bin	48	1
bin	49	1
bin	50	1
bin	51	1
bin	52	1
bin	53	1
bin	54	1
bin	55	1
bin	56	1
bin	57	1
bin	58	1
bin	59	1
bin	60	1
bin	61	1
bin	62	1
bin	63	1
bin	64	1
bin	65	1
bin	66	2
bin	67	1
bin	68	1
bin	69	1
bin	70	1
bin	71	1
bin	72	1
bin	73	1
bin	74	1
bin	75	1
bin	76	1
bin	77	1
bin	78	1
bin	79	1
bin	80	1
bin	81	1
bin	82	1
bin	83	2
bin	84	0
bin	85	0
bin	86	0
bin	87	0
bin	88	0
bin	89	0
bin	90	0
bin	91	8
bin	92	1
bin	93	1
bin	94	1
bin	95	1
bin	96	2
bin	97	0
bin	98	0
bin	99	0
bin	100	0
bin	101	0
bin	102	0
bin	103	0
bin	104	8
bin	105	1
bin	106	1
bin	107	1
bin	108	1
bin	109	2
bin	110	0
bin	111	0
bin	112	0
bin	113	0
bin	114	0
bin	115	0
bin	116	0
bin	117	8
bin	118	1
bin	119	1
bin	120	1
bin	121	1
bin	122	1
bin	123	1
bin	124	1
bin	125	1
bin	126	1
bin	127	1
bin	128	1
bin	129	1
bin	130	1
bin	131	1
bin	132	1
bin	133	2
bin	134	1
bin	135	1
bin	136	1
bin	137	1
bin	138	922
scalar SimphonyDHTNetwork.members[12] 	#packetsInTheNetwork 	1502
statistic SimphonyDHTNetwork.members[12] 	"packets statistics"
field count 1582
field mean 753.35145385588
field stddev 435.87075897254
field sum 1191802
field sqrsum 1198209396
field min 0
field max 1501
attr type  int
bin	-INF	0
bin	-46	0
bin	-45	0
bin	-44	0
bin	-43	0
bin	-42	0
bin	-41	0
bin	-40	0
bin	-39	0
bin	-38	0
bin	-37	0
bin	-36	0
bin	-35	0
bin	-34	0
bin	-33	0
bin	-32	0
bin	-31	0
bin	-30	0
bin	-29	0
bin	-28	0
bin	-27	0
bin	-26	0
bin	-25	0
bin	-24	0
bin	-23	0
bin	-22	0
bin	-21	0
bin	-20	0
bin	-19	0
bin	-18	0
bin	-17	0
bin	-16	0
bin	-15	0
bin	-14	0
bin	-13	0
bin	-12	0
bin	-11	0
bin	-10	0
bin	-9	0
bin	-8	0
bin	-7	0
bin	-6	0
bin	-5	0
bin	-4	0
bin	-3	0
bin	-2	0
bin	-1	0
bin	0	1
bin	1	1
bin	2	2
bin	3	1
bin	4	2
bin	5	2
bin	6	1
bin	7	1
bin	8	1
bin	9	1
bin	10	1
bin	11	1
bin	12	1
bin	13	2
bin	14	0
bin	15	0
bin	16	0
bin	17	0
bin	18	0
bin	19	0
bin	20	0
bin	21	8
bin	22	1
bin	23	1
bin	24	1
bin	25	1
bin	26	1
bin	27	1
bin	28	1
bin	29	1
bin	30	1
bin	31	1
bin	32	1
bin	33	1
bin	34	1
bin	35	1
bin	36	1
bin	37	1
bin	38	1
bin	39	1
bin	40	1
bin	41	1
bin	42	1
bin	43	1
bin	44	1
bin	45	1
bin	46	1
bin	47	1
bin	48	1
bin	49	1
bin	50	1
bin	51	1
bin	52	1
bin	53	2
bin	54	0
bin	55	0
bin	56	0
bin	57	0
bin	58	0
bin	59	0
bin	60	0
bin	61	8
bin	62	1
bin	63	1
bin	64	1
bin	65	1
bin	66	2
bin	67	0
bin	68	0
bin	69	0
bin	70	0
bin	71	0
bin	72	0
bin	73	0
bin	74	8
bin	75	1
bin	76	1
bin	77	1
bin	78	1
bin	79	1
bin	80	1
bin	81	1
bin	82	1
bin	83	2
bin	84	0
bin	85	0
bin	86	0
bin	87	0
bin	88	0
bin	89	0
bin	90	0
bin	91	8
bin	92	1
bin	93	1
bin	94	1
bin	95	2
bin	96	0
bin	97	0
bin	98	0
bin	99	0
bin	100	0
bin	101	0
bin	102	0
bin	103	8
bin	104	1
bin	105	1
bin	106	1
bin	107	1
bin	108	1
bin	109	1
bin	110	2
bin	111	0
bin	112	0
bin	113	0
bin	114	0
bin	115	0
bin	116	0
bin	117	0
bin	118	8
bin	119	1
bin	120	1
bin	121	1
bin	122	2
bin	123	1
bin	124	1
bin	125	2
bin	126	0
bin	127	0
bin	128	0
bin	129	0
bin	130	0
bin	131	0
bin	132	0
bin	133	8
bin	134	1
bin	135	1
bin	136	1
bin	137	1
bin	138	1433
scalar SimphonyDHTNetwork.members[13] 	#packetsInTheNetwork 	1478
statistic SimphonyDHTNetwork.members[13] 	"packets statistics"
field count 1566
field mean 738.43295019157
field stddev 427.88723430106
field sum 1156386
field sqrsum 1140445440
field min 0
field max 1477
attr type  int
bin	-INF	0
bin	-47	0
bin	-46	0
bin	-45	0
bin	-44	0
bin	-43	0
bin	-42	0
bin	-41	0
bin	-40	0
bin	-39	0
bin	-38	0
bin	-37	0
bin	-36	0
bin	-35	0
bin	-34	0
bin	-33	0
bin	-32	0
bin	-31	0
bin	-30	0
bin	-29	0
bin	-28	0
bin	-27	0
bin	-26	0
bin	-25	0
bin	-24	0
bin	-23	0
bin	-22	0
bin	-21	0
bin	-20	0
bin	-19	0
bin	-18	0
bin	-17	0
bin	-16	0
bin	-15	0
bin	-14	0
bin	-13	0
bin	-12	0
bin	-11	0
bin	-10	0
bin	-9	0
bin	-8	0
bin	-7	0
bin	-6	0
bin	-5	0
bin	-4	0
bin	-3	0
bin	-2	0
bin	-1	0
bin	0	1
bin	1	1
bin	2	1
bin	3	1
bin	4	1
bin	5	1
bin	6	2
bin	7	1
bin	8	1
bin	9	1
bin	10	1
bin	11	2
bin	12	0
bin	13	0
bin	14	0
bin	15	0
bin	16	0
bin	17	0
bin	18	0
bin	19	8
bin	20	1
bin	21	1
bin	22	1
bin	23	1
bin	24	1
bin	25	1
bin	26	1
bin	27	1
bin	28	1
bin	29	1
bin	30	1
bin	31	1
bin	32	1
bin	33	1
bin	34	1
bin	35	1
bin	36	1
bin	37	1
bin	38	1
bin	39	2
bin	40	0
bin	41	0
bin	42	0
bin	43	0
bin	44	0
bin	45	0
bin	46	0
bin	47	8
bin	48	1
bin	49	1
bin	50	1
bin	51	1
bin	52	1
bin	53	2
bin	54	1
bin	55	1
bin	56	1
bin	57	2
bin	58	1
bin	59	1
bin	60	1
bin	61	1
bin	62	1
bin	63	1
bin	64	1
bin	65	1
bin	66	1
bin	67	1
bin	68	1
bin	69	1
bin	70	1
bin	71	2
bin	72	0
bin	73	0
bin	74	0
bin	75	0
bin	76	0
bin	77	0
bin	78	0
bin	79	8
bin	80	1
bin	81	1
bin	82	1
bin	83	1
bin	84	1
bin	85	1
bin	86	1
bin	87	1
bin	88	1
bin	89	1
bin	90	1
bin	91	1
bin	92	1
bin	93	1
bin	94	1
bin	95	1
bin	96	1
bin	97	1
bin	98	1
bin	99	1
bin	100	2
bin	101	2
bin	102	1
bin	103	1
bin	104	2
bin	105	0
bin	106	0
bin	107	0
bin	108	0
bin	109	0
bin	110	0
bin	111	0
bin	112	2
bin	113	7
bin	114	1
bin	115	1
bin	116	1
bin	117	1
bin	118	1
bin	119	1
bin	120	2
bin	121	0
bin	122	0
bin	123	0
bin	124	0
bin	125	0
bin	126	0
bin	127	0
bin	128	8
bin	129	1
bin	130	1
bin	131	1
bin	132	1
bin	133	2
bin	134	0
bin	135	0
bin	136	0
bin	137	0
bin	138	0
bin	139	0
bin	140	1421
scalar SimphonyDHTNetwork.members[14] 	#packetsInTheNetwork 	632
statistic SimphonyDHTNetwork.members[14] 	"packets statistics"
field count 691
field mean 319.81765557164
field stddev 182.82283744305
field sum 220994
field sqrsum 93740474
field min 0
field max 631
attr type  int
bin	-INF	0
bin	-46	0
bin	-45	0
bin	-44	0
bin	-43	0
bin	-42	0
bin	-41	0
bin	-40	0
bin	-39	0
bin	-38	0
bin	-37	0
bin	-36	0
bin	-35	0
bin	-34	0
bin	-33	0
bin	-32	0
bin	-31	0
bin	-30	0
bin	-29	0
bin	-28	0
bin	-27	0
bin	-26	0
bin	-25	0
bin	-24	0
bin	-23	0
bin	-22	0
bin	-21	0
bin	-20	0
bin	-19	0
bin	-18	0
bin	-17	0
bin	-16	0
bin	-15	0
bin	-14	0
bin	-13	0
bin	-12	0
bin	-11	0
bin	-10	0
bin	-9	0
bin	-8	0
bin	-7	0
bin	-6	0
bin	-5	0
bin	-4	0
bin	-3	0
bin	-2	0
bin	-1	0
bin	0	1
bin	1	1
bin	2	1
bin	3	2
bin	4	0
bin	5	0
bin	6	0
bin	7	0
bin	8	0
bin	9	0
bin	10	0
bin	11	8
bin	12	1
bin	13	1
bin	14	1
bin	15	2
bin	16	0
bin	17	0
bin	18	0
bin	19	0
bin	20	0
bin	21	0
bin	22	0
bin	23	8
bin	24	1
bin	25	1
bin	26	1
bin	27	1
bin	28	1
bin	29	2
bin	30	2
bin	31	1
bin	32	1
bin	33	2
bin	34	0
bin	35	0
bin	36	0
bin	37	0
bin	38	0
bin	39	0
bin	40	0
bin	41	8
bin	42	1
bin	43	1
bin	44	1
bin	45	1
bin	46	1
bin	47	1
bin	48	1
bin	49	1
bin	50	1
bin	51	1
bin	52	1
bin	53	1
bin	54	1
bin	55	1
bin	56	1
bin	57	1
bin	58	1
bin	59	1
bin	60	2
bin	61	1
bin	62	1
bin	63	1
bin	64	1
bin	65	1
bin	66	1
bin	67	1
bin	68	1
bin	69	1
bin	70	1
bin	71	2
bin	72	0
bin	73	0
bin	74	0
bin	75	0
bin	76	0
bin	77	0
bin	78	0
bin	79	8
bin	80	1
bin	81	1
bin	82	1
bin	83	1
bin	84	2
bin	85	0
bin	86	0
bin	87	0
bin	88	0
bin	89	0
bin	90	0
bin	91	0
bin	92	8
bin	93	1
bin	94	1
bin	95	1
bin	96	1
bin	97	1
bin	98	1
bin	99	1
bin	100	0
bin	101	2
bin	102	0
bin	103	0
bin	104	0
bin	105	0
bin	106	0
bin	107	0
bin	108	0
bin	109	8
bin	110	1
bin	111	2
bin	112	1
bin	113	1
bin	114	1
bin	115	2
bin	116	0
bin	117	0
bin	118	0
bin	119	0
bin	120	0
bin	121	0
bin	122	0
bin	123	8
bin	124	1
bin	125	1
bin	126	1
bin	127	1
bin	128	1
bin	129	1
bin	130	1
bin	131	1
bin	132	1
bin	133	1
bin	134	1
bin	135	1
bin	136	1
bin	137	1
bin	138	543
scalar SimphonyDHTNetwork.members[15] 	#packetsInTheNetwork 	1484
statistic SimphonyDHTNetwork.members[15] 	"packets statistics"
field count 1585
field mean 744.59432176656
field stddev 429.37852386987
field sum 1180182
field sqrsum 1170792428
field min 0
field max 1483
attr type  int
bin	-INF	0
bin	-46	0
bin	-45	0
bin	-44	0
bin	-43	0
bin	-42	0
bin	-41	0
bin	-40	0
bin	-39	0
bin	-38	0
bin	-37	0
bin	-36	0
bin	-35	0
bin	-34	0
bin	-33	0
bin	-32	0
bin	-31	0
bin	-30	0
bin	-29	0
bin	-28	0
bin	-27	0
bin	-26	0
bin	-25	0
bin	-24	0
bin	-23	0
bin	-22	0
bin	-21	0
bin	-20	0
bin	-19	0
bin	-18	0
bin	-17	0
bin	-16	0
bin	-15	0
bin	-14	0
bin	-13	0
bin	-12	0
bin	-11	0
bin	-10	0
bin	-9	0
bin	-8	0
bin	-7	0
bin	-6	0
bin	-5	0
bin	-4	0
bin	-3	0
bin	-2	0
bin	-1	0
bin	0	1
bin	1	1
bin	2	1
bin	3	1
bin	4	1
bin	5	1
bin	6	1
bin	7	1
bin	8	2
bin	9	1
bin	10	2
bin	11	2
bin	12	1
bin	13	1
bin	14	1
bin	15	1
bin	16	1
bin	17	1
bin	18	1
bin	19	1
bin	20	1
bin	21	1
bin	22	1
bin	23	1
bin	24	1
bin	25	1
bin	26	1
bin	27	1
bin	28	1
bin	29	1
bin	30	2
bin	31	0
bin	32	0
bin	33	0
bin	34	0
bin	35	0
bin	36	0
bin	37	0
bin	38	8
bin	39	1
bin	40	1
bin	41	1
bin	42	1
bin	43	2
bin	44	0
bin	45	0
bin	46	0
bin	47	0
bin	48	0
bin	49	0
bin	50	0
bin	51	8
bin	52	1
bin	53	1
bin	54	1
bin	55	1
bin	56	1
bin	57	1
bin	58	2
bin	59	0
bin	60	0
bin	61	0
bin	62	0
bin	63	0
bin	64	0
bin	65	0
bin	66	8
bin	67	1
bin	68	1
bin	69	1
bin	70	1
bin	71	1
bin	72	2
bin	73	0
bin	74	0
bin	75	0
bin	76	0
bin	77	0
bin	78	0
bin	79	0
bin	80	8
bin	81	1
bin	82	1
bin	83	1
bin	84	1
bin	85	1
bin	86	1
bin	87	1
bin	88	1
bin	89	1
bin	90	1
bin	91	1
bin	92	1
bin	93	1
bin	94	2
bin	95	0
bin	96	0
bin	97	0
bin	98	0
bin	99	0
bin	100	0
bin	101	0
bin	102	8
bin	103	1
bin	104	1
bin	105	1
bin	106	1
bin	107	1
bin	108	1
bin	109	1
bin	110	1
bin	111	1
bin	112	1
bin	113	1
bin	114	2
bin	115	0
bin	116	0
bin	117	0
bin	118	0
bin	119	0
bin	120	0
bin	121	0
bin	122	8
bin	123	1
bin	124	1
bin	125	1
bin	126	1
bin	127	1
bin	128	1
bin	129	1
bin	130	1
bin	131	1
bin	132	1
bin	133	1
bin	134	1
bin	135	1
bin	136	1
bin	137	1
bin	138	1438
scalar SimphonyDHTNetwork.members[16] 	#packetsInTheNetwork 	1780
statistic SimphonyDHTNetwork.members[16] 	"packets statistics"
field count 1921
field mean 896.48464341489
field stddev 514.44910857239
field sum 1722147
field sqrsum 2052021479
field min 0
field max 1779
attr type  int
bin	-INF	0
bin	-48	0
bin	-47	0
bin	-46	0
bin	-45	0
bin	-44	0
bin	-43	0
bin	-42	0
bin	-41	0
bin	-40	0
bin	-39	0
bin	-38	0
bin	-37	0
bin	-36	0
bin	-35	0
bin	-34	0
bin	-33	0
bin	-32	0
bin	-31	0
bin	-30	0
bin	-29	0
bin	-28	0
bin	-27	0
bin	-26	0
bin	-25	0
bin	-24	0
bin	-23	0
bin	-22	0
bin	-21	0
bin	-20	0
bin	-19	0
bin	-18	0
bin	-17	0
bin	-16	0
bin	-15	0
bin	-14	0
bin	-13	0
bin	-12	0
bin	-11	0
bin	-10	0
bin	-9	0
bin	-8	0
bin	-7	0
bin	-6	0
bin	-5	0
bin	-4	0
bin	-3	0
bin	-2	0
bin	-1	0
bin	0	1
bin	1	1
bin	2	1
bin	3	1
bin	4	1
bin	5	1
bin	6	2
bin	7	0
bin	8	0
bin	9	0
bin	10	0
bin	11	0
bin	12	0
bin	13	0
bin	14	8
bin	15	1
bin	16	1
bin	17	1
bin	18	1
bin	19	1
bin	20	1
bin	21	1
bin	22	1
bin	23	1
bin	24	1
bin	25	2
bin	26	0
bin	27	0
bin	28	0
bin	29	0
bin	30	0
bin	31	0
bin	32	0
bin	33	8
bin	34	1
bin	35	1
bin	36	1
bin	37	1
bin	38	1
bin	39	1
bin	40	1
bin	41	1
bin	42	1
bin	43	1
bin	44	1
bin	45	1
bin	46	1
bin	47	1
bin	48	1
bin	49	2
bin	50	0
bin	51	0
bin	52	0
bin	53	0
bin	54	0
bin	55	0
bin	56	0
bin	57	8
bin	58	1
bin	59	1
bin	60	1
bin	61	1
bin	62	1
bin	63	1
bin	64	2
bin	65	0
bin	66	0
bin	67	0
bin	68	0
bin	69	0
bin	70	0
bin	71	0
bin	72	8
bin	73	1
bin	74	1
bin	75	1
bin	76	1
bin	77	1
bin	78	1
bin	79	1
bin	80	1
bin	81	1
bin	82	1
bin	83	1
bin	84	1
bin	85	1
bin	86	1
bin	87	1
bin	88	2
bin	89	0
bin	90	0
bin	91	0
bin	92	0
bin	93	0
bin	94	0
bin	95	0
bin	96	8
bin	97	1
bin	98	1
bin	99	1
bin	100	1
bin	101	1
bin	102	1
bin	103	1
bin	104	1
bin	105	1
bin	106	2
bin	107	1
bin	108	1
bin	109	1
bin	110	1
bin	111	1
bin	112	1
bin	113	2
bin	114	0
bin	115	0
bin	116	0
bin	117	0
bin	118	0
bin	119	0
bin	120	0
bin	121	8
bin	122	1
bin	123	1
bin	124	1
bin	125	1
bin	126	2
bin	127	0
bin	128	0
bin	129	0
bin	130	0
bin	131	0
bin	132	0
bin	133	0
bin	134	8
bin	135	1
bin	136	1
bin	137	1
bin	138	1
bin	139	1
bin	140	1
bin	141	1
bin	142	1
bin	143	1
bin	144	1769
scalar SimphonyDHTNetwork.members[17] 	#packetsInTheNetwork 	1056
statistic SimphonyDHTNetwork.members[17] 	"packets statistics"
field count 1120
field mean 528.89196428571
field stddev 305.4382777098
field sum 592359
field sqrsum 417688269
field min 0
field max 1055
attr type  int
bin	-INF	0
bin	-46	0
bin	-45	0
bin	-44	0
bin	-43	0
bin	-42	0
bin	-41	0
bin	-40	0
bin	-39	0
bin	-38	0
bin	-37	0
bin	-36	0
bin	-35	0
bin	-34	0
bin	-33	0
bin	-32	0
bin	-31	0
bin	-30	0
bin	-29	0
bin	-28	0
bin	-27	0
bin	-26	0
bin	-25	0
bin	-24	0
bin	-23	0
bin	-22	0
bin	-21	0
bin	-20	0
bin	-19	0
bin	-18	0
bin	-17	0
bin	-16	0
bin	-15	0
bin	-14	0
bin	-13	0
bin	-12	0
bin	-11	0
bin	-10	0
bin	-9	0
bin	-8	0
bin	-7	0
bin	-6	0
bin	-5	0
bin	-4	0
bin	-3	0
bin	-2	0
bin	-1	0
bin	0	1
bin	1	1
bin	2	1
bin	3	2
bin	4	0
bin	5	0
bin	6	0
bin	7	0
bin	8	0
bin	9	0
bin	10	0
bin	11	8
bin	12	1
bin	13	1
bin	14	1
bin	15	1
bin	16	1
bin	17	1
bin	18	1
bin	19	2
bin	20	0
bin	21	0
bin	22	0
bin	23	0
bin	24	0
bin	25	0
bin	26	0
bin	27	8
bin	28	1
bin	29	1
bin	30	1
bin	31	1
bin	32	1
bin	33	1
bin	34	1
bin	35	1
bin	36	2
bin	37	1
bin	38	1
bin	39	1
bin	40	1
bin	41	1
bin	42	1
bin	43	1
bin	44	1
bin	45	1
bin	46	1
bin	47	1
bin	48	2
bin	49	1
bin	50	1
bin	51	1
bin	52	2
bin	53	0
bin	54	0
bin	55	0
bin	56	0
bin	57	0
bin	58	0
bin	59	0
bin	60	8
bin	61	1
bin	62	1
bin	63	1
bin	64	1
bin	65	1
bin	66	1
bin	67	1
bin	68	2
bin	69	0
bin	70	0
bin	71	0
bin	72	0
bin	73	0
bin	74	0
bin	75	0
bin	76	8
bin	77	1
bin	78	1
bin	79	1
bin	80	1
bin	81	2
bin	82	0
bin	83	0
bin	84	0
bin	85	0
bin	86	0
bin	87	0
bin	88	0
bin	89	8
bin	90	1
bin	91	1
bin	92	1
bin	93	1
bin	94	1
bin	95	1
bin	96	1
bin	97	1
bin	98	1
bin	99	1
bin	100	1
bin	101	1
bin	102	1
bin	103	1
bin	104	1
bin	105	1
bin	106	1
bin	107	1
bin	108	1
bin	109	1
bin	110	1
bin	111	1
bin	112	1
bin	113	1
bin	114	1
bin	115	1
bin	116	2
bin	117	0
bin	118	0
bin	119	0
bin	120	0
bin	121	0
bin	122	0
bin	123	0
bin	124	8
bin	125	1
bin	126	1
bin	127	1
bin	128	1
bin	129	1
bin	130	1
bin	131	1
bin	132	1
bin	133	1
bin	134	1
bin	135	1
bin	136	1
bin	137	1
bin	138	974
scalar SimphonyDHTNetwork.members[18] 	#packetsInTheNetwork 	844
statistic SimphonyDHTNetwork.members[18] 	"packets statistics"
field count 902
field mean 424.80598669623
field stddev 244.16077254506
field sum 383175
field sqrsum 216487683
field min 0
field max 843
attr type  int
bin	-INF	0
bin	-47	0
bin	-46	0
bin	-45	0
bin	-44	0
bin	-43	0
bin	-42	0
bin	-41	0
bin	-40	0
bin	-39	0
bin	-38	0
bin	-37	0
bin	-36	0
bin	-35	0
bin	-34	0
bin	-33	0
bin	-32	0
bin	-31	0
bin	-30	0
bin	-29	0
bin	-28	0
bin	-27	0
bin	-26	0
bin	-25	0
bin	-24	0
bin	-23	0
bin	-22	0
bin	-21	0
bin	-20	0
bin	-19	0
bin	-18	0
bin	-17	0
bin	-16	0
bin	-15	0
bin	-14	0
bin	-13	0
bin	-12	0
bin	-11	0
bin	-10	0
bin	-9	0
bin	-8	0
bin	-7	0
bin	-6	0
bin	-5	0
bin	-4	0
bin	-3	0
bin	-2	0
bin	-1	0
bin	0	1
bin	1	1
bin	2	1
bin	3	2
bin	4	0
bin	5	0
bin	6	0
bin	7	0
bin	8	0
bin	9	0
bin	10	0
bin	11	8
bin	12	1
bin	13	1
bin	14	1
bin	15	1
bin	16	1
bin	17	1
bin	18	1
bin	19	1
bin	20	1
bin	21	1
bin	22	1
bin	23	2
bin	24	0
bin	25	0
bin	26	0
bin	27	0
bin	28	0
bin	29	0
bin	30	0
bin	31	1
bin	32	8
bin	33	1
bin	34	1
bin	35	1
bin	36	1
bin	37	1
bin	38	1
bin	39	1
bin	40	1
bin	41	1
bin	42	1
bin	43	1
bin	44	1
bin	45	1
bin	46	1
bin	47	1
bin	48	2
bin	49	0
bin	50	0
bin	51	0
bin	52	0
bin	53	0
bin	54	0
bin	55	0
bin	56	8
bin	57	1
bin	58	1
bin	59	1
bin	60	1
bin	61	1
bin	62	1
bin	63	2
bin	64	0
bin	65	0
bin	66	0
bin	67	0
bin	68	0
bin	69	0
bin	70	0
bin	71	8
bin	72	1
bin	73	1
bin	74	1
bin	75	1
bin	76	2
bin	77	0
bin	78	0
bin	79	0
bin	80	0
bin	81	0
bin	82	0
bin	83	0
bin	84	8
bin	85	1
bin	86	1
bin	87	1
bin	88	1
bin	89	1
bin	90	1
bin	91	1
bin	92	1
bin	93	1
bin	94	1
bin	95	1
bin	96	1
bin	97	1
bin	98	1
bin	99	1
bin	100	1
bin	101	1
bin	102	1
bin	103	1
bin	104	2
bin	105	1
bin	106	1
bin	107	1
bin	108	1
bin	109	1
bin	110	1
bin	111	2
bin	112	0
bin	113	0
bin	114	0
bin	115	0
bin	116	0
bin	117	0
bin	118	0
bin	119	8
bin	120	1
bin	121	1
bin	122	1
bin	123	1
bin	124	1
bin	125	1
bin	126	1
bin	127	1
bin	128	2
bin	129	0
bin	130	0
bin	131	0
bin	132	0
bin	133	0
bin	134	0
bin	135	0
bin	136	8
bin	137	1
bin	138	1
bin	139	1
bin	140	1
bin	141	753
scalar SimphonyDHTNetwork.members[19] 	#packetsInTheNetwork 	1214
statistic SimphonyDHTNetwork.members[19] 	"packets statistics"
field count 1303
field mean 608.55333844973
field stddev 349.8765066784
field sum 792945
field sqrsum 641931795
field min 0
field max 1213
attr type  int
bin	-INF	0
bin	-47	0
bin	-46	0
bin	-45	0
bin	-44	0
bin	-43	0
bin	-42	0
bin	-41	0
bin	-40	0
bin	-39	0
bin	-38	0
bin	-37	0
bin	-36	0
bin	-35	0
bin	-34	0
bin	-33	0
bin	-32	0
bin	-31	0
bin	-30	0
bin	-29	0
bin	-28	0
bin	-27	0
bin	-26	0
bin	-25	0
bin	-24	0
bin	-23	0
bin	-22	0
bin	-21	0
bin	-20	0
bin	-19	0
bin	-18	0
bin	-17	0
bin	-16	0
bin	-15	0
bin	-14	0
bin	-13	0
bin	-12	0
bin	-11	0
bin	-10	0
bin	-9	0
bin	-8	0
bin	-7	0
bin	-6	0
bin	-5	0
bin	-4	0
bin	-3	0
bin	-2	0
bin	-1	0
bin	0	1
bin	1	1
bin	2	1
bin	3	1
bin	4	1
bin	5	2
bin	6	0
bin	7	0
bin	8	0
bin	9	0
bin	10	0
bin	11	0
bin	12	0
bin	13	8
bin	14	1
bin	15	1
bin	16	1
bin	17	1
bin	18	1
bin	19	1
bin	20	1
bin	21	1
bin	22	1
bin	23	2
bin	24	0
bin	25	0
bin	26	0
bin	27	0
bin	28	0
bin	29	0
bin	30	0
bin	31	8
bin	32	1
bin	33	1
bin	34	1
bin	35	1
bin	36	1
bin	37	1
bin	38	1
bin	39	1
bin	40	2
bin	41	0
bin	42	0
bin	43	0
bin	44	0
bin	45	0
bin	46	0
bin	47	0
bin	48	8
bin	49	1
bin	50	1
bin	51	1
bin	52	1
bin	53	1
bin	54	2
bin	55	0
bin	56	0
bin	57	0
bin	58	0
bin	59	0
bin	60	0
bin	61	0
bin	62	8
bin	63	1
bin	64	1
bin	65	1
bin	66	1
bin	67	2
bin	68	0
bin	69	0
bin	70	0
bin	71	0
bin	72	0
bin	73	0
bin	74	0
bin	75	8
bin	76	1
bin	77	1
bin	78	1
bin	79	1
bin	80	2
bin	81	0
bin	82	0
bin	83	0
bin	84	0
bin	85	0
bin	86	0
bin	87	0
bin	88	8
bin	89	1
bin	90	1
bin	91	1
bin	92	1
bin	93	2
bin	94	0
bin	95	0
bin	96	0
bin	97	0
bin	98	0
bin	99	0
bin	100	0
bin	101	8
bin	102	1
bin	103	1
bin	104	1
bin	105	1
bin	106	1
bin	107	1
bin	108	1
bin	109	1
bin	110	1
bin	111	1
bin	112	1
bin	113	1
bin	114	2
bin	115	0
bin	116	0
bin	117	0
bin	118	0
bin	119	0
bin	120	0
bin	121	0
bin	122	8
bin	123	1
bin	124	1
bin	125	1
bin	126	1
bin	127	2
bin	128	0
bin	129	0
bin	130	0
bin	131	0
bin	132	0
bin	133	0
bin	134	0
bin	135	8
bin	136	1
bin	137	1
bin	138	1
bin	139	1
bin	140	1154
scalar SimphonyDHTNetwork.members[20] 	#packetsInTheNetwork 	851
statistic SimphonyDHTNetwork.members[20] 	"packets statistics"
field count 919
field mean 429.58433079434
field stddev 245.73139509262
field sum 394788
field sqrsum 225027176
field min 0
field max 850
attr type  int
bin	-INF	0
bin	-50	0
bin	-49	0
bin	-48	0
bin	-47	0
bin	-46	0
bin	-45	0
bin	-44	0
bin	-43	0
bin	-42	0
bin	-41	0
bin	-40	0
bin	-39	0
bin	-38	0
bin	-37	0
bin	-36	0
bin	-35	0
bin	-34	0
bin	-33	0
bin	-32	0
bin	-31	0
bin	-30	0
bin	-29	0
bin	-28	0
bin	-27	0
bin	-26	0
bin	-25	0
bin	-24	0
bin	-23	0
bin	-22	0
bin	-21	0
bin	-20	0
bin	-19	0
bin	-18	0
bin	-17	0
bin	-16	0
bin	-15	0
bin	-14	0
bin	-13	0
bin	-12	0
bin	-11	0
bin	-10	0
bin	-9	0
bin	-8	0
bin	-7	0
bin	-6	0
bin	-5	0
bin	-4	0
bin	-3	0
bin	-2	0
bin	-1	0
bin	0	1
bin	1	1
bin	2	1
bin	3	1
bin	4	1
bin	5	1
bin	6	1
bin	7	1
bin	8	1
bin	9	1
bin	10	1
bin	11	1
bin	12	2
bin	13	0
bin	14	0
bin	15	0
bin	16	0
bin	17	0
bin	18	0
bin	19	0
bin	20	8
bin	21	1
bin	22	1
bin	23	1
bin	24	1
bin	25	2
bin	26	0
bin	27	0
bin	28	0
bin	29	0
bin	30	0
bin	31	0
bin	32	0
bin	33	8
bin	34	1
bin	35	1
bin	36	1
bin	37	1
bin	38	1
bin	39	1
bin	40	2
bin	41	1
bin	42	1
bin	43	1
bin	44	1
bin	45	1
bin	46	1
bin	47	1
bin	48	1
bin	49	1
bin	50	1
bin	51	1
bin	52	1
bin	53	1
bin	54	1
bin	55	2
bin	56	1
bin	57	1
bin	58	1
bin	59	1
bin	60	1
bin	61	1
bin	62	1
bin	63	1
bin	64	1
bin	65	1
bin	66	1
bin	67	1
bin	68	1
bin	69	1
bin	70	1
bin	71	1
bin	72	1
bin	73	1
bin	74	1
bin	75	1
bin	76	2
bin	77	0
bin	78	0
bin	79	0
bin	80	0
bin	81	0
bin	82	0
bin	83	0
bin	84	8
bin	85	1
bin	86	1
bin	87	1
bin	88	1
bin	89	1
bin	90	1
bin	91	1
bin	92	2
bin	93	0
bin	94	0
bin	95	0
bin	96	0
bin	97	0
bin	98	0
bin	99	0
bin	100	8
bin	101	1
bin	102	1
bin	103	1
bin	104	1
bin	105	2
bin	106	0
bin	107	0
bin	108	0
bin	109	0
bin	110	0
bin	111	0
bin	112	0
bin	113	8
bin	114	1
bin	115	1
bin	116	1
bin	117	1
bin	118	1
bin	119	0
bin	120	2
bin	121	0
bin	122	0
bin	123	0
bin	124	0
bin	125	0
bin	126	0
bin	127	0
bin	128	8
bin	129	1
bin	130	2
bin	131	1
bin	132	1
bin	133	1
bin	134	1
bin	135	1
bin	136	1
bin	137	1
bin	138	1
bin	139	1
bin	140	1
bin	141	1
bin	142	1
bin	143	1
bin	144	1
bin	145	1
bin	146	1
bin	147	1
bin	148	1
bin	149	1
bin	150	761
scalar SimphonyDHTNetwork.members[21] 	#packetsInTheNetwork 	1001
statistic SimphonyDHTNetwork.members[21] 	"packets statistics"
field count 1077
field mean 505.90064995357
field stddev 288.58824162792
field sum 544855
field sqrsum 365255193
field min 0
field max 1000
attr type  int
bin	-INF	0
bin	-48	0
bin	-47	0
bin	-46	0
bin	-45	0
bin	-44	0
bin	-43	0
bin	-42	0
bin	-41	0
bin	-40	0
bin	-39	0
bin	-38	0
bin	-37	0
bin	-36	0
bin	-35	0
bin	-34	0
bin	-33	0
bin	-32	0
bin	-31	0
bin	-30	0
bin	-29	0
bin	-28	0
bin	-27	0
bin	-26	0
bin	-25	0
bin	-24	0
bin	-23	0
bin	-22	0
bin	-21	0
bin	-20	0
bin	-19	0
bin	-18	0
bin	-17	0
bin	-16	0
bin	-15	0
bin	-14	0
bin	-13	0
bin	-12	0
bin	-11	0
bin	-10	0
bin	-9	0
bin	-8	0
bin	-7	0
bin	-6	0
bin	-5	0
bin	-4	0
bin	-3	0
bin	-2	0
bin	-1	0
bin	0	1
bin	1	1
bin	2	1
bin	3	1
bin	4	1
bin	5	1
bin	6	1
bin	7	1
bin	8	1
bin	9	1
bin	10	1
bin	11	1
bin	12	1
bin	13	1
bin	14	2
bin	15	0
bin	16	0
bin	17	0
bin	18	0
bin	19	0
bin	20	0
bin	21	0
bin	22	8
bin	23	1
bin	24	1
bin	25	1
bin	26	1
bin	27	1
bin	28	1
bin	29	1
bin	30	1
bin	31	1
bin	32	1
bin	33	1
bin	34	1
bin	35	1
bin	36	1
bin	37	2
bin	38	0
bin	39	0
bin	40	0
bin	41	0
bin	42	0
bin	43	0
bin	44	0
bin	45	8
bin	46	1
bin	47	1
bin	48	1
bin	49	1
bin	50	1
bin	51	1
bin	52	1
bin	53	1
bin	54	1
bin	55	1
bin	56	1
bin	57	1
bin	58	1
bin	59	1
bin	60	1
bin	61	1
bin	62	1
bin	63	2
bin	64	0
bin	65	0
bin	66	0
bin	67	0
bin	68	0
bin	69	0
bin	70	0
bin	71	8
bin	72	1
bin	73	1
bin	74	1
bin	75	1
bin	76	1
bin	77	2
bin	78	0
bin	79	0
bin	80	0
bin	81	0
bin	82	0
bin	83	0
bin	84	0
bin	85	8
bin	86	1
bin	87	1
bin	88	1
bin	89	1
bin	90	1
bin	91	1
bin	92	1
bin	93	1
bin	94	1
bin	95	1
bin	96	1
bin	97	1
bin	98	1
bin	99	1
bin	100	1
bin	101	1
bin	102	1
bin	103	1
bin	104	1
bin	105	1
bin	106	1
bin	107	1
bin	108	1
bin	109	1
bin	110	1
bin	111	1
bin	112	1
bin	113	1
bin	114	1
bin	115	1
bin	116	1
bin	117	1
bin	118	1
bin	119	1
bin	120	1
bin	121	1
bin	122	1
bin	123	1
bin	124	1
bin	125	2
bin	126	0
bin	127	0
bin	128	0
bin	129	0
bin	130	0
bin	131	0
bin	132	7
bin	133	1
bin	134	1
bin	135	1
bin	136	1
bin	137	2
bin	138	0
bin	139	0
bin	140	0
bin	141	0
bin	142	0
bin	143	933
scalar SimphonyDHTNetwork.members[22] 	#packetsInTheNetwork 	1406
statistic SimphonyDHTNetwork.members[22] 	"packets statistics"
field count 1503
field mean 704.7997338656
field stddev 405.36988642494
field sum 1059314
field sqrsum 993419992
field min 0
field max 1405
attr type  int
bin	-INF	0
bin	-47	0
bin	-46	0
bin	-45	0
bin	-44	0
bin	-43	0
bin	-42	0
bin	-41	0
bin	-40	0
bin	-39	0
bin	-38	0
bin	-37	0
bin	-36	0
bin	-35	0
bin	-34	0
bin	-33	0
bin	-32	0
bin	-31	0
bin	-30	0
bin	-29	0
bin	-28	0
bin	-27	0
bin	-26	0
bin	-25	0
bin	-24	0
bin	-23	0
bin	-22	0
bin	-21	0
bin	-20	0
bin	-19	0
bin	-18	0
bin	-17	0
bin	-16	0
bin	-15	0
bin	-14	0
bin	-13	0
bin	-12	0
bin	-11	0
bin	-10	0
bin	-9	0
bin	-8	0
bin	-7	0
bin	-6	0
bin	-5	0
bin	-4	0
bin	-3	0
bin	-2	0
bin	-1	0
bin	0	1
bin	1	1
bin	2	2
bin	3	0
bin	4	0
bin	5	0
bin	6	0
bin	7	0
bin	8	0
bin	9	0
bin	10	8
bin	11	1
bin	12	1
bin	13	1
bin	14	1
bin	15	1
bin	16	1
bin	17	1
bin	18	1
bin	19	1
bin	20	1
bin	21	1
bin	22	1
bin	23	2
bin	24	0
bin	25	0
bin	26	0
bin	27	0
bin	28	0
bin	29	0
bin	30	0
bin	31	8
bin	32	1
bin	33	1
bin	34	1
bin	35	1
bin	36	1
bin	37	1
bin	38	1
bin	39	1
bin	40	1
bin	41	1
bin	42	1
bin	43	1
bin	44	1
bin	45	2
bin	46	0
bin	47	0
bin	48	0
bin	49	0
bin	50	0
bin	51	0
bin	52	0
bin	53	8
bin	54	1
bin	55	1
bin	56	1
bin	57	1
bin	58	1
bin	59	1
bin	60	1
bin	61	1
bin	62	1
bin	63	1
bin	64	1
bin	65	2
bin	66	0
bin	67	0
bin	68	0
bin	69	0
bin	70	0
bin	71	0
bin	72	0
bin	73	8
bin	74	1
bin	75	1
bin	76	1
bin	77	1
bin	78	1
bin	79	1
bin	80	1
bin	81	1
bin	82	1
bin	83	2
bin	84	0
bin	85	0
bin	86	0
bin	87	0
bin	88	0
bin	89	0
bin	90	0
bin	91	8
bin	92	1
bin	93	1
bin	94	1
bin	95	1
bin	96	2
bin	97	0
bin	98	0
bin	99	0
bin	100	0
bin	101	0
bin	102	0
bin	103	0
bin	104	8
bin	105	1
bin	106	1
bin	107	1
bin	108	1
bin	109	2
bin	110	0
bin	111	0
bin	112	0
bin	113	0
bin	114	0
bin	115	0
bin	116	0
bin	117	8
bin	118	1
bin	119	1
bin	120	1
bin	121	1
bin	122	1
bin	123	1
bin	124	1
bin	125	1
bin	126	1
bin	127	2
bin	128	0
bin	129	0
bin	130	0
bin	131	0
bin	132	0
bin	133	0
bin	134	0
bin	135	8
bin	136	1
bin	137	1
bin	138	1
bin	139	1
bin	140	2
bin	141	1353
scalar SimphonyDHTNetwork.members[23] 	#packetsInTheNetwork 	923
statistic SimphonyDHTNetwork.members[23] 	"packets statistics"
field count 985
field mean 464.35228426396
field stddev 266.33200435177
field sum 457387
field sqrsum 282186511
field min 0
field max 922
attr type  int
bin	-INF	0
bin	-48	0
bin	-47	0
bin	-46	0
bin	-45	0
bin	-44	0
bin	-43	0
bin	-42	0
bin	-41	0
bin	-40	0
bin	-39	0
bin	-38	0
bin	-37	0
bin	-36	0
bin	-35	0
bin	-34	0
bin	-33	0
bin	-32	0
bin	-31	0
bin	-30	0
bin	-29	0
bin	-28	0
bin	-27	0
bin	-26	0
bin	-25	0
bin	-24	0
bin	-23	0
bin	-22	0
bin	-21	0
bin	-20	0
bin	-19	0
bin	-18	0
bin	-17	0
bin	-16	0
bin	-15	0
bin	-14	0
bin	-13	0
bin	-12	0
bin	-11	0
bin	-10	0
bin	-9	0
bin	-8	0
bin	-7	0
bin	-6	0
bin	-5	0
bin	-4	0
bin	-3	0
bin	-2	0
bin	-1	0
bin	0	1
bin	1	1
bin	2	1
bin	3	1
bin	4	1
bin	5	1
bin	6	1
bin	7	1
bin	8	1
bin	9	1
bin	10	1
bin	11	1
bin	12	1
bin	13	1
bin	14	1
bin	15	1
bin	16	2
bin	17	0
bin	18	0
bin	19	0
bin	20	0
bin	21	0
bin	22	0
bin	23	0
bin	24	8
bin	25	1
bin	26	1
bin	27	1
bin	28	1
bin	29	2
bin	30	0
bin	31	0
bin	32	0
bin	33	0
bin	34	0
bin	35	0
bin	36	0
bin	37	8
bin	38	1
bin	39	1
bin	40	1
bin	41	1
bin	42	1
bin	43	2
bin	44	0
bin	45	0
bin	46	0
bin	47	0
bin	48	0
bin	49	0
bin	50	0
bin	51	8
bin	52	1
bin	53	1
bin	54	1
bin	55	1
bin	56	1
bin	57	1
bin	58	1
bin	59	1
bin	60	1
bin	61	2
bin	62	0
bin	63	0
bin	64	0
bin	65	0
bin	66	0
bin	67	0
bin	68	0
bin	69	8
bin	70	1
bin	71	1
bin	72	1
bin	73	1
bin	74	1
bin	75	1
bin	76	1
bin	77	1
bin	78	1
bin	79	1
bin	80	1
bin	81	1
bin	82	1
bin	83	1
bin	84	1
bin	85	1
bin	86	1
bin	87	1
bin	88	1
bin	89	1
bin	90	1
bin	91	1
bin	92	1
bin	93	1
bin	94	1
bin	95	2
bin	96	1
bin	97	1
bin	98	1
bin	99	1
bin	100	1
bin	101	1
bin	102	1
bin	103	1
bin	104	1
bin	105	1
bin	106	1
bin	107	1
bin	108	1
bin	109	2
bin	110	0
bin	111	0
bin	112	0
bin	113	0
bin	114	0
bin	115	0
bin	116	0
bin	117	1
bin	118	8
bin	119	1
bin	120	2
bin	121	0
bin	122	0
bin	123	0
bin	124	0
bin	125	0
bin	126	0
bin	127	0
bin	128	1
bin	129	8
bin	130	1
bin	131	1
bin	132	1
bin	133	1
bin	134	1
bin	135	1
bin	136	1
bin	137	1
bin	138	1
bin	139	1
bin	140	1
bin	141	1
bin	142	1
bin	143	835
scalar SimphonyDHTNetwork.members[24] 	#packetsInTheNetwork 	1035
statistic SimphonyDHTNetwork.members[24] 	"packets statistics"
field count 1104
field mean 521.70923913043
field stddev 298.93870550941
field sum 575967
field sqrsum 399056183
field min 0
field max 1034
attr type  int
bin	-INF	0
bin	-48	0
bin	-47	0
bin	-46	0
bin	-45	0
bin	-44	0
bin	-43	0
bin	-42	0
bin	-41	0
bin	-40	0
bin	-39	0
bin	-38	0
bin	-37	0
bin	-36	0
bin	-35	0
bin	-34	0
bin	-33	0
bin	-32	0
bin	-31	0
bin	-30	0
bin	-29	0
bin	-28	0
bin	-27	0
bin	-26	0
bin	-25	0
bin	-24	0
bin	-23	0
bin	-22	0
bin	-21	0
bin	-20	0
bin	-19	0
bin	-18	0
bin	-17	0
bin	-16	0
bin	-15	0
bin	-14	0
bin	-13	0
bin	-12	0
bin	-11	0
bin	-10	0
bin	-9	0
bin	-8	0
bin	-7	0
bin	-6	0
bin	-5	0
bin	-4	0
bin	-3	0
bin	-2	0
bin	-1	0
bin	0	1
bin	1	1
bin	2	1
bin	3	2
bin	4	0
bin	5	0
bin	6	0
bin	7	0
bin	8	0
bin	9	0
bin	10	0
bin	11	8
bin	12	1
bin	13	1
bin	14	1
bin	15	1
bin	16	1
bin	17	1
bin	18	2
bin	19	0
bin	20	0
bin	21	0
bin	22	0
bin	23	0
bin	24	0
bin	25	0
bin	26	8
bin	27	1
bin	28	1
bin	29	1
bin	30	1
bin	31	1
bin	32	1
bin	33	1
bin	34	1
bin	35	1
bin	36	1
bin	37	1
bin	38	1
bin	39	1
bin	40	1
bin	41	1
bin	42	1
bin	43	1
bin	44	1
bin	45	1
bin	46	1
bin	47	1
bin	48	1
bin	49	1
bin	50	1
bin	51	1
bin	52	1
bin	53	1
bin	54	1
bin	55	1
bin	56	2
bin	57	0
bin	58	0
bin	59	0
bin	60	0
bin	61	0
bin	62	0
bin	63	0
bin	64	8
bin	65	1
bin	66	1
bin	67	1
bin	68	1
bin	69	1
bin	70	1
bin	71	1
bin	72	1
bin	73	1
bin	74	1
bin	75	1
bin	76	1
bin	77	1
bin	78	1
bin	79	1
bin	80	1
bin	81	1
bin	82	1
bin	83	2
bin	84	0
bin	85	0
bin	86	0
bin	87	0
bin	88	0
bin	89	0
bin	90	0
bin	91	8
bin	92	1
bin	93	1
bin	94	1
bin	95	1
bin	96	1
bin	97	1
bin	98	1
bin	99	1
bin	100	1
bin	101	1
bin	102	1
bin	103	1
bin	104	1
bin	105	1
bin	106	1
bin	107	1
bin	108	1
bin	109	1
bin	110	1
bin	111	1
bin	112	1
bin	113	1
bin	114	1
bin	115	1
bin	116	1
bin	117	1
bin	118	1
bin	119	1
bin	120	1
bin	121	1
bin	122	1
bin	123	1
bin	124	1
bin	125	2
bin	126	0
bin	127	0
bin	128	0
bin	129	0
bin	130	0
bin	131	0
bin	132	0
bin	133	8
bin	134	1
bin	135	1
bin	136	1
bin	137	1
bin	138	1
bin	139	1
bin	140	1
bin	141	1
bin	142	2
bin	143	955
scalar SimphonyDHTNetwork.members[25] 	#packetsInTheNetwork 	1040
statistic SimphonyDHTNetwork.members[25] 	"packets statistics"
field count 1111
field mean 524.70657065707
field stddev 301.32838981141
field sum 582949
field sqrsum 406663837
field min 0
field max 1039
attr type  int
bin	-INF	0
bin	-47	0
bin	-46	0
bin	-45	0
bin	-44	0
bin	-43	0
bin	-42	0
bin	-41	0
bin	-40	0
bin	-39	0
bin	-38	0
bin	-37	0
bin	-36	0
bin	-35	0
bin	-34	0
bin	-33	0
bin	-32	0
bin	-31	0
bin	-30	0
bin	-29	0
bin	-28	0
bin	-27	0
bin	-26	0
bin	-25	0
bin	-24	0
bin	-23	0
bin	-22	0
bin	-21	0
bin	-20	0
bin	-19	0
bin	-18	0
bin	-17	0
bin	-16	0
bin	-15	0
bin	-14	0
bin	-13	0
bin	-12	0
bin	-11	0
bin	-10	0
bin	-9	0
bin	-8	0
bin	-7	0
bin	-6	0
bin	-5	0
bin	-4	0
bin	-3	0
bin	-2	0
bin	-1	0
bin	0	1
bin	1	1
bin	2	1
bin	3	1
bin	4	1
bin	5	1
bin	6	1
bin	7	1
bin	8	1
bin	9	1
bin	10	2
bin	11	1
bin	12	1
bin	13	1
bin	14	1
bin	15	1
bin	16	1
bin	17	1
bin	18	1
bin	19	2
bin	20	0
bin	21	0
bin	22	0
bin	23	0
bin	24	0
bin	25	0
bin	26	0
bin	27	8
bin	28	1
bin	29	1
bin	30	1
bin	31	1
bin	32	2
bin	33	0
bin	34	0
bin	35	0
bin	36	0
bin	37	0
bin	38	0
bin	39	0
bin	40	8
bin	41	1
bin	42	1
bin	43	1
bin	44	1
bin	45	1
bin	46	1
bin	47	1
bin	48	1
bin	49	1
bin	50	1
bin	51	1
bin	52	1
bin	53	1
bin	54	2
bin	55	0
bin	56	0
bin	57	0
bin	58	0
bin	59	0
bin	60	0
bin	61	0
bin	62	8
bin	63	1
bin	64	1
bin	65	1
bin	66	1
bin	67	1
bin	68	1
bin	69	1
bin	70	1
bin	71	1
bin	72	1
bin	73	1
bin	74	1
bin	75	2
bin	76	0
bin	77	0
bin	78	0
bin	79	0
bin	80	0
bin	81	0
bin	82	0
bin	83	8
bin	84	1
bin	85	1
bin	86	1
bin	87	1
bin	88	1
bin	89	1
bin	90	1
bin	91	1
bin	92	1
bin	93	1
bin	94	1
bin	95	1
bin	96	1
bin	97	1
bin	98	1
bin	99	2
bin	100	0
bin	101	0
bin	102	0
bin	103	0
bin	104	0
bin	105	0
bin	106	0
bin	107	8
bin	108	1
bin	109	1
bin	110	1
bin	111	1
bin	112	2
bin	113	0
bin	114	0
bin	115	0
bin	116	0
bin	117	0
bin	118	0
bin	119	0
bin	120	8
bin	121	1
bin	122	1
bin	123	1
bin	124	1
bin	125	2
bin	126	0
bin	127	0
bin	128	0
bin	129	0
bin	130	0
bin	131	0
bin	132	0
bin	133	8
bin	134	1
bin	135	1
bin	136	1
bin	137	1
bin	138	2
bin	139	0
bin	140	0
bin	141	963
scalar SimphonyDHTNetwork.members[26] 	#packetsInTheNetwork 	1303
statistic SimphonyDHTNetwork.members[26] 	"packets statistics"
field count 1391
field mean 652.67577282531
field stddev 376.39979966732
field sum 907872
field sqrsum 789476824
field min 0
field max 1302
attr type  int
bin	-INF	0
bin	-47	0
bin	-46	0
bin	-45	0
bin	-44	0
bin	-43	0
bin	-42	0
bin	-41	0
bin	-40	0
bin	-39	0
bin	-38	0
bin	-37	0
bin	-36	0
bin	-35	0
bin	-34	0
bin	-33	0
bin	-32	0
bin	-31	0
bin	-30	0
bin	-29	0
bin	-28	0
bin	-27	0
bin	-26	0
bin	-25	0
bin	-24	0
bin	-23	0
bin	-22	0
bin	-21	0
bin	-20	0
bin	-19	0
bin	-18	0
bin	-17	0
bin	-16	0
bin	-15	0
bin	-14	0
bin	-13	0
bin	-12	0
bin	-11	0
bin	-10	0
bin	-9	0
bin	-8	0
bin	-7	0
bin	-6	0
bin	-5	0
bin	-4	0
bin	-3	0
bin	-2	0
bin	-1	0
bin	0	1
bin	1	1
bin	2	1
bin	3	1
bin	4	1
bin	5	1
bin	6	1
bin	7	1
bin	8	1
bin	9	1
bin	10	0
bin	11	2
bin	12	0
bin	13	0
bin	14	0
bin	15	0
bin	16	0
bin	17	0
bin	18	0
bin	19	8
bin	20	1
bin	21	1
bin	22	2
bin	23	1
bin	24	1
bin	25	1
bin	26	1
bin	27	1
bin	28	1
bin	29	1
bin	30	1
bin	31	1
bin	32	1
bin	33	1
bin	34	1
bin	35	1
bin	36	1
bin	37	1
bin	38	1
bin	39	1
bin	40	1
bin	41	1
bin	42	1
bin	43	2
bin	44	0
bin	45	0
bin	46	0
bin	47	0
bin	48	0
bin	49	0
bin	50	0
bin	51	8
bin	52	1
bin	53	1
bin	54	0
bin	55	2
bin	56	0
bin	57	0
bin	58	0
bin	59	0
bin	60	0
bin	61	0
bin	62	0
bin	63	8
bin	64	1
bin	65	2
bin	66	1
bin	67	1
bin	68	1
bin	69	1
bin	70	1
bin	71	2
bin	72	0
bin	73	0
bin	74	0
bin	75	0
bin	76	0
bin	77	0
bin	78	0
bin	79	8
bin	80	1
bin	81	1
bin	82	1
bin	83	1
bin	84	2
bin	85	0
bin	86	0
bin	87	0
bin	88	0
bin	89	0
bin	90	0
bin	91	0
bin	92	8
bin	93	1
bin	94	1
bin	95	1
bin	96	1
bin	97	2
bin	98	0
bin	99	0
bin	100	0
bin	101	0
bin	102	0
bin	103	0
bin	104	0
bin	105	8
bin	106	1
bin	107	1
bin	108	1
bin	109	1
bin	110	1
bin	111	1
bin	112	1
bin	113	1
bin	114	1
bin	115	1
bin	116	1
bin	117	1
bin	118	1
bin	119	1
bin	120	1
bin	121	1
bin	122	1
bin	123	1
bin	124	1
bin	125	2
bin	126	2
bin	127	1
bin	128	1
bin	129	2
bin	130	0
bin	131	0
bin	132	0
bin	133	0
bin	134	0
bin	135	0
bin	136	0
bin	137	8
bin	138	1
bin	139	1
bin	140	1
bin	141	1241
scalar SimphonyDHTNetwork.members[27] 	#packetsInTheNetwork 	557
statistic SimphonyDHTNetwork.members[27] 	"packets statistics"
field count 612
field mean 280.22385620915
field stddev 160.66017817297
field sum 171497
field sqrsum 63828495
field min 0
field max 556
attr type  int
bin	-INF	0
bin	-47	0
bin	-46	0
bin	-45	0
bin	-44	0
bin	-43	0
bin	-42	0
bin	-41	0
bin	-40	0
bin	-39	0
bin	-38	0
bin	-37	0
bin	-36	0
bin	-35	0
bin	-34	0
bin	-33	0
bin	-32	0
bin	-31	0
bin	-30	0
bin	-29	0
bin	-28	0
bin	-27	0
bin	-26	0
bin	-25	0
bin	-24	0
bin	-23	0
bin	-22	0
bin	-21	0
bin	-20	0
bin	-19	0
bin	-18	0
bin	-17	0
bin	-16	0
bin	-15	0
bin	-14	0
bin	-13	0
bin	-12	0
bin	-11	0
bin	-10	0
bin	-9	0
bin	-8	0
bin	-7	0
bin	-6	0
bin	-5	0
bin	-4	0
bin	-3	0
bin	-2	0
bin	-1	0
bin	0	1
bin	1	1
bin	2	1
bin	3	1
bin	4	1
bin	5	1
bin	6	0
bin	7	2
bin	8	0
bin	9	0
bin	10	0
bin	11	0
bin	12	0
bin	13	0
bin	14	0
bin	15	8
bin	16	1
bin	17	2
bin	18	1
bin	19	1
bin	20	1
bin	21	1
bin	22	1
bin	23	1
bin	24	1
bin	25	1
bin	26	1
bin	27	1
bin	28	1
bin	29	1
bin	30	1
bin	31	1
bin	32	1
bin	33	1
bin	34	1
bin	35	1
bin	36	1
bin	37	1
bin	38	1
bin	39	2
bin	40	2
bin	41	1
bin	42	1
bin	43	2
bin	44	0
bin	45	0
bin	46	0
bin	47	0
bin	48	0
bin	49	0
bin	50	0
bin	51	8
bin	52	1
bin	53	1
bin	54	1
bin	55	1
bin	56	1
bin	57	2
bin	58	0
bin	59	0
bin	60	0
bin	61	0
bin	62	0
bin	63	0
bin	64	0
bin	65	8
bin	66	1
bin	67	1
bin	68	1
bin	69	1
bin	70	1
bin	71	2
bin	72	0
bin	73	0
bin	74	0
bin	75	0
bin	76	0
bin	77	0
bin	78	0
bin	79	8
bin	80	1
bin	81	1
bin	82	1
bin	83	1
bin	84	1
bin	85	1
bin	86	1
bin	87	1
bin	88	1
bin	89	1
bin	90	1
bin	91	1
bin	92	1
bin	93	1
bin	94	2
bin	95	0
bin	96	0
bin	97	0
bin	98	0
bin	99	0
bin	100	0
bin	101	0
bin	102	8
bin	103	1
bin	104	1
bin	105	1
bin	106	1
bin	107	1
bin	108	1
bin	109	1
bin	110	1
bin	111	1
bin	112	1
bin	113	1
bin	114	1
bin	115	1
bin	116	1
bin	117	1
bin	118	1
bin	119	1
bin	120	1
bin	121	1
bin	122	1
bin	123	2
bin	124	1
bin	125	2
bin	126	2
bin	127	1
bin	128	1
bin	129	1
bin	130	1
bin	131	1
bin	132	1
bin	133	1
bin	134	1
bin	135	1
bin	136	2
bin	137	1
bin	138	1
bin	139	2
bin	140	460
scalar SimphonyDHTNetwork.members[28] 	#packetsInTheNetwork 	736
statistic SimphonyDHTNetwork.members[28] 	"packets statistics"
field count 810
field mean 370.42098765432
field stddev 211.66992006327
field sum 300041
field sqrsum 147388045
field min 0
field max 735
attr type  int
bin	-INF	0
bin	-46	0
bin	-45	0
bin	-44	0
bin	-43	0
bin	-42	0
bin	-41	0
bin	-40	0
bin	-39	0
bin	-38	0
bin	-37	0
bin	-36	0
bin	-35	0
bin	-34	0
bin	-33	0
bin	-32	0
bin	-31	0
bin	-30	0
bin	-29	0
bin	-28	0
bin	-27	0
bin	-26	0
bin	-25	0
bin	-24	0
bin	-23	0
bin	-22	0
bin	-21	0
bin	-20	0
bin	-19	0
bin	-18	0
bin	-17	0
bin	-16	0
bin	-15	0
bin	-14	0
bin	-13	0
bin	-12	0
bin	-11	0
bin	-10	0
bin	-9	0
bin	-8	0
bin	-7	0
bin	-6	0
bin	-5	0
bin	-4	0
bin	-3	0
bin	-2	0
bin	-1	0
bin	0	1
bin	1	1
bin	2	1
bin	3	1
bin	4	1
bin	5	1
bin	6	2
bin	7	1
bin	8	1
bin	9	1
bin	10	1
bin	11	1
bin	12	1
bin	13	1
bin	14	1
bin	15	1
bin	16	1
bin	17	1
bin	18	1
bin	19	1
bin	20	1
bin	21	1
bin	22	1
bin	23	1
bin	24	1
bin	25	1
bin	26	1
bin	27	1
bin	28	1
bin	29	1
bin	30	1
bin	31	1
bin	32	1
bin	33	1
bin	34	1
bin	35	1
bin	36	2
bin	37	0
bin	38	0
bin	39	0
bin	40	0
bin	41	0
bin	42	0
bin	43	0
bin	44	8
bin	45	1
bin	46	1
bin	47	1
bin	48	1
bin	49	2
bin	50	0
bin	51	0
bin	52	0
bin	53	0
bin	54	0
bin	55	0
bin	56	0
bin	57	8
bin	58	1
bin	59	1
bin	60	1
bin	61	1
bin	62	2
bin	63	1
bin	64	2
bin	65	2
bin	66	1
bin	67	1
bin	68	1
bin	69	1
bin	70	1
bin	71	1
bin	72	1
bin	73	1
bin	74	1
bin	75	1
bin	76	1
bin	77	1
bin	78	1
bin	79	2
bin	80	0
bin	81	0
bin	82	0
bin	83	0
bin	84	0
bin	85	0
bin	86	0
bin	87	8
bin	88	1
bin	89	1
bin	90	1
bin	91	2
bin	92	0
bin	93	0
bin	94	0
bin	95	0
bin	96	0
bin	97	0
bin	98	0
bin	99	8
bin	100	1
bin	101	1
bin	102	1
bin	103	1
bin	104	1
bin	105	1
bin	106	1
bin	107	1
bin	108	1
bin	109	1
bin	110	1
bin	111	1
bin	112	2
bin	113	0
bin	114	0
bin	115	0
bin	116	0
bin	117	0
bin	118	0
bin	119	0
bin	120	8
bin	121	1
bin	122	1
bin	123	1
bin	124	1
bin	125	1
bin	126	1
bin	127	1
bin	128	1
bin	129	1
bin	130	1
bin	131	1
bin	132	1
bin	133	1
bin	134	1
bin	135	1
bin	136	1
bin	137	664
scalar SimphonyDHTNetwork.members[29] 	#packetsInTheNetwork 	1190
statistic SimphonyDHTNetwork.members[29] 	"packets statistics"
field count 1272
field mean 596.22169811321
field stddev 344.50892253102
field sum 758394
field sqrsum 603021370
field min 0
field max 1189
attr type  int
bin	-INF	0
bin	-47	0
bin	-46	0
bin	-45	0
bin	-44	0
bin	-43	0
bin	-42	0
bin	-41	0
bin	-40	0
bin	-39	0
bin	-38	0
bin	-37	0
bin	-36	0
bin	-35	0
bin	-34	0
bin	-33	0
bin	-32	0
bin	-31	0
bin	-30	0
bin	-29	0
bin	-28	0
bin	-27	0
bin	-26	0
bin	-25	0
bin	-24	0
bin	-23	0
bin	-22	0
bin	-21	0
bin	-20	0
bin	-19	0
bin	-18	0
bin	-17	0
bin	-16	0
bin	-15	0
bin	-14	0
bin	-13	0
bin	-12	0
bin	-11	0
bin	-10	0
bin	-9	0
bin	-8	0
bin	-7	0
bin	-6	0
bin	-5	0
bin	-4	0
bin	-3	0
bin	-2	0
bin	-1	0
bin	0	1
bin	1	1
bin	2	1
bin	3	1
bin	4	1
bin	5	1
bin	6	2
bin	7	0
bin	8	0
bin	9	0
bin	10	0
bin	11	0
bin	12	0
bin	13	0
bin	14	8
bin	15	1
bin	16	0
bin	17	2
bin	18	0
bin	19	0
bin	20	0
bin	21	0
bin	22	0
bin	23	0
bin	24	0
bin	25	8
bin	26	1
bin	27	2
bin	28	1
bin	29	1
bin	30	1
bin	31	1
bin	32	1
bin	33	1
bin	34	1
bin	35	2
bin	36	0
bin	37	0
bin	38	0
bin	39	0
bin	40	0
bin	41	0
bin	42	0
bin	43	8
bin	44	1
bin	45	1
bin	46	1
bin	47	1
bin	48	2
bin	49	0
bin	50	0
bin	51	0
bin	52	0
bin	53	0
bin	54	0
bin	55	0
bin	56	8
bin	57	1
bin	58	1
bin	59	1
bin	60	2
bin	61	0
bin	62	0
bin	63	0
bin	64	0
bin	65	0
bin	66	0
bin	67	0
bin	68	8
bin	69	1
bin	70	1
bin	71	1
bin	72	1
bin	73	2
bin	74	0
bin	75	0
bin	76	0
bin	77	0
bin	78	0
bin	79	0
bin	80	0
bin	81	8
bin	82	1
bin	83	1
bin	84	1
bin	85	1
bin	86	2
bin	87	0
bin	88	0
bin	89	0
bin	90	0
bin	91	0
bin	92	0
bin	93	0
bin	94	8
bin	95	1
bin	96	1
bin	97	1
bin	98	1
bin	99	2
bin	100	0
bin	101	0
bin	102	0
bin	103	0
bin	104	0
bin	105	0
bin	106	0
bin	107	8
bin	108	1
bin	109	1
bin	110	1
bin	111	1
bin	112	1
bin	113	1
bin	114	1
bin	115	1
bin	116	1
bin	117	1
bin	118	1
bin	119	2
bin	120	2
bin	121	1
bin	122	1
bin	123	2
bin	124	0
bin	125	0
bin	126	0
bin	127	0
bin	128	0
bin	129	0
bin	130	0
bin	131	8
bin	132	1
bin	133	1
bin	134	1
bin	135	1
bin	136	1
bin	137	2
bin	138	0
bin	139	0
bin	140	0
bin	141	1122
scalar SimphonyDHTNetwork.members[30] 	#packetsInTheNetwork 	403
statistic SimphonyDHTNetwork.members[30] 	"packets statistics"
field count 450
field mean 203.08888888889
field stddev 115.30027076081
field sum 91390
field sqrsum 24529368
field min 0
field max 402
attr type  int
bin	-INF	0
bin	-46	0
bin	-45	0
bin	-44	0
bin	-43	0
bin	-42	0
bin	-41	0
bin	-40	0
bin	-39	0
bin	-38	0
bin	-37	0
bin	-36	0
bin	-35	0
bin	-34	0
bin	-33	0
bin	-32	0
bin	-31	0
bin	-30	0
bin	-29	0
bin	-28	0
bin	-27	0
bin	-26	0
bin	-25	0
bin	-24	0
bin	-23	0
bin	-22	0
bin	-21	0
bin	-20	0
bin	-19	0
bin	-18	0
bin	-17	0
bin	-16	0
bin	-15	0
bin	-14	0
bin	-13	0
bin	-12	0
bin	-11	0
bin	-10	0
bin	-9	0
bin	-8	0
bin	-7	0
bin	-6	0
bin	-5	0
bin	-4	0
bin	-3	0
bin	-2	0
bin	-1	0
bin	0	1
bin	1	1
bin	2	1
bin	3	1
bin	4	1
bin	5	1
bin	6	2
bin	7	0
bin	8	0
bin	9	0
bin	10	0
bin	11	0
bin	12	0
bin	13	0
bin	14	8
bin	15	1
bin	16	1
bin	17	1
bin	18	1
bin	19	1
bin	20	1
bin	21	0
bin	22	2
bin	23	0
bin	24	0
bin	25	0
bin	26	0
bin	27	0
bin	28	0
bin	29	0
bin	30	8
bin	31	1
bin	32	2
bin	33	1
bin	34	1
bin	35	1
bin	36	1
bin	37	1
bin	38	1
bin	39	1
bin	40	1
bin	41	1
bin	42	1
bin	43	1
bin	44	1
bin	45	1
bin	46	1
bin	47	1
bin	48	1
bin	49	1
bin	50	2
bin	51	1
bin	52	2
bin	53	2
bin	54	1
bin	55	1
bin	56	1
bin	57	1
bin	58	1
bin	59	2
bin	60	0
bin	61	0
bin	62	0
bin	63	0
bin	64	0
bin	65	0
bin	66	0
bin	67	8
bin	68	1
bin	69	1
bin	70	1
bin	71	1
bin	72	1
bin	73	1
bin	74	1
bin	75	2
bin	76	0
bin	77	0
bin	78	0
bin	79	0
bin	80	0
bin	81	0
bin	82	0
bin	83	8
bin	84	1
bin	85	1
bin	86	1
bin	87	1
bin	88	1
bin	89	1
bin	90	1
bin	91	1
bin	92	1
bin	93	1
bin	94	1
bin	95	1
bin	96	1
bin	97	2
bin	98	2
bin	99	1
bin	100	1
bin	101	2
bin	102	0
bin	103	0
bin	104	0
bin	105	0
bin	106	0
bin	107	0
bin	108	0
bin	109	8
bin	110	1
bin	111	1
bin	112	1
bin	113	1
bin	114	1
bin	115	2
bin	116	0
bin	117	0
bin	118	0
bin	119	0
bin	120	0
bin	121	0
bin	122	0
bin	123	8
bin	124	1
bin	125	1
bin	126	1
bin	127	1
bin	128	1
bin	129	2
bin	130	0
bin	131	0
bin	132	0
bin	133	0
bin	134	0
bin	135	0
bin	136	0
bin	137	8
bin	138	300
scalar SimphonyDHTNetwork.members[31] 	#packetsInTheNetwork 	1089
statistic SimphonyDHTNetwork.members[31] 	"packets statistics"
field count 1166
field mean 546.95883361921
field stddev 313.8382542107
field sum 637754
field sqrsum 463571218
field min 0
field max 1088
attr type  int
bin	-INF	0
bin	-47	0
bin	-46	0
bin	-45	0
bin	-44	0
bin	-43	0
bin	-42	0
bin	-41	0
bin	-40	0
bin	-39	0
bin	-38	0
bin	-37	0
bin	-36	0
bin	-35	0
bin	-34	0
bin	-33	0
bin	-32	0
bin	-31	0
bin	-30	0
bin	-29	0
bin	-28	0
bin	-27	0
bin	-26	0
bin	-25	0
bin	-24	0
bin	-23	0
bin	-22	0
bin	-21	0
bin	-20	0
bin	-19	0
bin	-18	0
bin	-17	0
bin	-16	0
bin	-15	0
bin	-14	0
bin	-13	0
bin	-12	0
bin	-11	0
bin	-10	0
bin	-9	0
bin	-8	0
bin	-7	0
bin	-6	0
bin	-5	0
bin	-4	0
bin	-3	0
bin	-2	0
bin	-1	0
bin	0	1
bin	1	1
bin	2	1
bin	3	1
bin	4	1
bin	5	1
bin	6	1
bin	7	2
bin	8	0
bin	9	0
bin	10	0
bin	11	0
bin	12	0
bin	13	0
bin	14	0
bin	15	8
bin	16	1
bin	17	1
bin	18	1
bin	19	1
bin	20	1
bin	21	1
bin	22	1
bin	23	1
bin	24	1
bin	25	1
bin	26	1
bin	27	1
bin	28	1
bin	29	1
bin	30	1
bin	31	1
bin	32	1
bin	33	1
bin	34	1
bin	35	1
bin	36	2
bin	37	0
bin	38	0
bin	39	0
bin	40	0
bin	41	0
bin	42	0
bin	43	0
bin	44	8
bin	45	1
bin	46	1
bin	47	1
bin	48	1
bin	49	1
bin	50	1
bin	51	1
bin	52	1
bin	53	2
bin	54	0
bin	55	0
bin	56	0
bin	57	0
bin	58	0
bin	59	0
bin	60	0
bin	61	8
bin	62	1
bin	63	1
bin	64	1
bin	65	1
bin	66	2
bin	67	0
bin	68	0
bin	69	0
bin	70	0
bin	71	0
bin	72	0
bin	73	0
bin	74	8
bin	75	1
bin	76	1
bin	77	1
bin	78	1
bin	79	1
bin	80	1
bin	81	1
bin	82	1
bin	83	1
bin	84	1
bin	85	1
bin	86	1
bin	87	1
bin	88	1
bin	89	1
bin	90	2
bin	91	1
bin	92	2
bin	93	2
bin	94	1
bin	95	1
bin	96	1
bin	97	1
bin	98	1
bin	99	1
bin	100	1
bin	101	1
bin	102	1
bin	103	1
bin	104	1
bin	105	1
bin	106	1
bin	107	1
bin	108	1
bin	109	1
bin	110	1
bin	111	1
bin	112	1
bin	113	1
bin	114	1
bin	115	2
bin	116	0
bin	117	0
bin	118	0
bin	119	0
bin	120	0
bin	121	0
bin	122	0
bin	123	8
bin	124	1
bin	125	1
bin	126	1
bin	127	1
bin	128	2
bin	129	0
bin	130	0
bin	131	0
bin	132	0
bin	133	0
bin	134	0
bin	135	0
bin	136	8
bin	137	1
bin	138	1
bin	139	1
bin	140	1017
scalar SimphonyDHTNetwork.members[32] 	#packetsInTheNetwork 	1143
statistic SimphonyDHTNetwork.members[32] 	"packets statistics"
field count 1220
field mean 573.17213114754
field stddev 330.75494207696
field sum 699270
field sqrsum 534159252
field min 0
field max 1143
attr type  int
bin	-INF	0
bin	-49	0
bin	-48	0
bin	-47	0
bin	-46	0
bin	-45	0
bin	-44	0
bin	-43	0
bin	-42	0
bin	-41	0
bin	-40	0
bin	-39	0
bin	-38	0
bin	-37	0
bin	-36	0
bin	-35	0
bin	-34	0
bin	-33	0
bin	-32	0
bin	-31	0
bin	-30	0
bin	-29	0
bin	-28	0
bin	-27	0
bin	-26	0
bin	-25	0
bin	-24	0
bin	-23	0
bin	-22	0
bin	-21	0
bin	-20	0
bin	-19	0
bin	-18	0
bin	-17	0
bin	-16	0
bin	-15	0
bin	-14	0
bin	-13	0
bin	-12	0
bin	-11	0
bin	-10	0
bin	-9	0
bin	-8	0
bin	-7	0
bin	-6	0
bin	-5	0
bin	-4	0
bin	-3	0
bin	-2	0
bin	-1	0
bin	0	1
bin	1	1
bin	2	2
bin	3	0
bin	4	0
bin	5	0
bin	6	0
bin	7	0
bin	8	0
bin	9	0
bin	10	8
bin	11	1
bin	12	1
bin	13	1
bin	14	1
bin	15	1
bin	16	1
bin	17	2
bin	18	0
bin	19	0
bin	20	0
bin	21	0
bin	22	0
bin	23	0
bin	24	0
bin	25	8
bin	26	1
bin	27	1
bin	28	1
bin	29	1
bin	30	1
bin	31	1
bin	32	1
bin	33	1
bin	34	1
bin	35	1
bin	36	1
bin	37	1
bin	38	1
bin	39	1
bin	40	1
bin	41	1
bin	42	1
bin	43	1
bin	44	1
bin	45	1
bin	46	1
bin	47	1
bin	48	1
bin	49	2
bin	50	0
bin	51	0
bin	52	0
bin	53	0
bin	54	0
bin	55	0
bin	56	0
bin	57	8
bin	58	1
bin	59	1
bin	60	1
bin	61	1
bin	62	2
bin	63	0
bin	64	0
bin	65	0
bin	66	0
bin	67	0
bin	68	0
bin	69	0
bin	70	8
bin	71	1
bin	72	1
bin	73	1
bin	74	1
bin	75	2
bin	76	0
bin	77	0
bin	78	0
bin	79	0
bin	80	0
bin	81	0
bin	82	0
bin	83	8
bin	84	1
bin	85	1
bin	86	1
bin	87	1
bin	88	1
bin	89	1
bin	90	2
bin	91	0
bin	92	0
bin	93	0
bin	94	0
bin	95	0
bin	96	0
bin	97	0
bin	98	8
bin	99	1
bin	100	1
bin	101	1
bin	102	1
bin	103	2
bin	104	0
bin	105	0
bin	106	0
bin	107	0
bin	108	0
bin	109	0
bin	110	0
bin	111	8
bin	112	1
bin	113	1
bin	114	1
bin	115	1
bin	116	2
bin	117	0
bin	118	0
bin	119	0
bin	120	0
bin	121	0
bin	122	0
bin	123	0
bin	124	8
bin	125	1
bin	126	1
bin	127	1
bin	128	1
bin	129	1
bin	130	2
bin	131	0
bin	132	0
bin	133	0
bin	134	0
bin	135	0
bin	136	0
bin	137	0
bin	138	8
bin	139	1
bin	140	1
bin	141	1
bin	142	1
bin	143	2
bin	144	0
bin	145	0
bin	146	0
bin	147	1066
scalar SimphonyDHTNetwork.members[33] 	#packetsInTheNetwork 	822
statistic SimphonyDHTNetwork.members[33] 	"packets statistics"
field count 870
field mean 412.42183908046
field stddev 238.25965225578
field sum 358807
field sqrsum 197310941
field min 0
field max 821
attr type  int
bin	-INF	0
bin	-47	0
bin	-46	0
bin	-45	0
bin	-44	0
bin	-43	0
bin	-42	0
bin	-41	0
bin	-40	0
bin	-39	0
bin	-38	0
bin	-37	0
bin	-36	0
bin	-35	0
bin	-34	0
bin	-33	0
bin	-32	0
bin	-31	0
bin	-30	0
bin	-29	0
bin	-28	0
bin	-27	0
bin	-26	0
bin	-25	0
bin	-24	0
bin	-23	0
bin	-22	0
bin	-21	0
bin	-20	0
bin	-19	0
bin	-18	0
bin	-17	0
bin	-16	0
bin	-15	0
bin	-14	0
bin	-13	0
bin	-12	0
bin	-11	0
bin	-10	0
bin	-9	0
bin	-8	0
bin	-7	0
bin	-6	0
bin	-5	0
bin	-4	0
bin	-3	0
bin	-2	0
bin	-1	0
bin	0	1
bin	1	1
bin	2	1
bin	3	1
bin	4	1
bin	5	1
bin	6	1
bin	7	1
bin	8	2
bin	9	0
bin	10	0
bin	11	0
bin	12	0
bin	13	0
bin	14	0
bin	15	0
bin	16	8
bin	17	1
bin	18	1
bin	19	1
bin	20	1
bin	21	1
bin	22	1
bin	23	1
bin	24	2
bin	25	0
bin	26	0
bin	27	0
bin	28	0
bin	29	0
bin	30	0
bin	31	0
bin	32	8
bin	33	1
bin	34	1
bin	35	1
bin	36	2
bin	37	1
bin	38	1
bin	39	1
bin	40	1
bin	41	2
bin	42	1
bin	43	1
bin	44	2
bin	45	0
bin	46	0
bin	47	0
bin	48	0
bin	49	0
bin	50	0
bin	51	0
bin	52	8
bin	53	1
bin	54	1
bin	55	1
bin	56	1
bin	57	2
bin	58	0
bin	59	0
bin	60	0
bin	61	0
bin	62	0
bin	63	0
bin	64	0
bin	65	8
bin	66	1
bin	67	1
bin	68	1
bin	69	1
bin	70	0
bin	71	2
bin	72	0
bin	73	0
bin	74	0
bin	75	0
bin	76	0
bin	77	0
bin	78	0
bin	79	8
bin	80	1
bin	81	2
bin	82	1
bin	83	1
bin	84	1
bin	85	1
bin	86	2
bin	87	0
bin	88	0
bin	89	0
bin	90	0
bin	91	0
bin	92	0
bin	93	0
bin	94	8
bin	95	1
bin	96	1
bin	97	1
bin	98	1
bin	99	1
bin	100	1
bin	101	1
bin	102	1
bin	103	1
bin	104	1
bin	105	1
bin	106	1
bin	107	1
bin	108	1
bin	109	1
bin	110	2
bin	111	0
bin	112	0
bin	113	0
bin	114	0
bin	115	0
bin	116	0
bin	117	0
bin	118	8
bin	119	1
bin	120	1
bin	121	1
bin	122	1
bin	123	1
bin	124	1
bin	125	1
bin	126	1
bin	127	1
bin	128	1
bin	129	1
bin	130	1
bin	131	1
bin	132	1
bin	133	2
bin	134	0
bin	135	0
bin	136	0
bin	137	0
bin	138	0
bin	139	0
bin	140	0
bin	141	726
scalar SimphonyDHTNetwork.members[34] 	#packetsInTheNetwork 	946
statistic SimphonyDHTNetwork.members[34] 	"packets statistics"
field count 1013
field mean 477.06120434353
field stddev 273.71340462403
field sum 483263
field sqrsum 306364085
field min 0
field max 945
attr type  int
bin	-INF	0
bin	-47	0
bin	-46	0
bin	-45	0
bin	-44	0
bin	-43	0
bin	-42	0
bin	-41	0
bin	-40	0
bin	-39	0
bin	-38	0
bin	-37	0
bin	-36	0
bin	-35	0
bin	-34	0
bin	-33	0
bin	-32	0
bin	-31	0
bin	-30	0
bin	-29	0
bin	-28	0
bin	-27	0
bin	-26	0
bin	-25	0
bin	-24	0
bin	-23	0
bin	-22	0
bin	-21	0
bin	-20	0
bin	-19	0
bin	-18	0
bin	-17	0
bin	-16	0
bin	-15	0
bin	-14	0
bin	-13	0
bin	-12	0
bin	-11	0
bin	-10	0
bin	-9	0
bin	-8	0
bin	-7	0
bin	-6	0
bin	-5	0
bin	-4	0
bin	-3	0
bin	-2	0
bin	-1	0
bin	0	1
bin	1	1
bin	2	1
bin	3	1
bin	4	2
bin	5	2
bin	6	1
bin	7	1
bin	8	2
bin	9	0
bin	10	0
bin	11	0
bin	12	0
bin	13	0
bin	14	0
bin	15	0
bin	16	8
bin	17	1
bin	18	1
bin	19	1
bin	20	1
bin	21	1
bin	22	1
bin	23	1
bin	24	2
bin	25	0
bin	26	0
bin	27	0
bin	28	0
bin	29	0
bin	30	0
bin	31	0
bin	32	8
bin	33	1
bin	34	1
bin	35	1
bin	36	1
bin	37	1
bin	38	1
bin	39	1
bin	40	0
bin	41	2
bin	42	0
bin	43	0
bin	44	0
bin	45	0
bin	46	0
bin	47	0
bin	48	0
bin	49	8
bin	50	2
bin	51	1
bin	52	1
bin	53	1
bin	54	1
bin	55	1
bin	56	1
bin	57	1
bin	58	1
bin	59	1
bin	60	1
bin	61	1
bin	62	1
bin	63	1
bin	64	1
bin	65	1
bin	66	1
bin	67	1
bin	68	1
bin	69	1
bin	70	1
bin	71	1
bin	72	1
bin	73	1
bin	74	1
bin	75	1
bin	76	1
bin	77	1
bin	78	1
bin	79	1
bin	80	1
bin	81	1
bin	82	1
bin	83	1
bin	84	1
bin	85	1
bin	86	1
bin	87	1
bin	88	1
bin	89	1
bin	90	1
bin	91	1
bin	92	1
bin	93	1
bin	94	1
bin	95	1
bin	96	1
bin	97	0
bin	98	2
bin	99	0
bin	100	0
bin	101	0
bin	102	0
bin	103	0
bin	104	0
bin	105	7
bin	106	1
bin	107	2
bin	108	1
bin	109	1
bin	110	1
bin	111	1
bin	112	1
bin	113	1
bin	114	2
bin	115	1
bin	116	1
bin	117	1
bin	118	1
bin	119	1
bin	120	1
bin	121	1
bin	122	1
bin	123	2
bin	124	0
bin	125	0
bin	126	0
bin	127	0
bin	128	0
bin	129	0
bin	130	0
bin	131	8
bin	132	1
bin	133	1
bin	134	1
bin	135	1
bin	136	1
bin	137	2
bin	138	0
bin	139	0
bin	140	0
bin	141	866
scalar SimphonyDHTNetwork.members[35] 	#packetsInTheNetwork 	730
statistic SimphonyDHTNetwork.members[35] 	"packets statistics"
field count 789
field mean 366.02027883397
field stddev 211.82311626253
field sum 288790
field sqrsum 141059794
field min 0
field max 729
attr type  int
bin	-INF	0
bin	-47	0
bin	-46	0
bin	-45	0
bin	-44	0
bin	-43	0
bin	-42	0
bin	-41	0
bin	-40	0
bin	-39	0
bin	-38	0
bin	-37	0
bin	-36	0
bin	-35	0
bin	-34	0
bin	-33	0
bin	-32	0
bin	-31	0
bin	-30	0
bin	-29	0
bin	-28	0
bin	-27	0
bin	-26	0
bin	-25	0
bin	-24	0
bin	-23	0
bin	-22	0
bin	-21	0
bin	-20	0
bin	-19	0
bin	-18	0
bin	-17	0
bin	-16	0
bin	-15	0
bin	-14	0
bin	-13	0
bin	-12	0
bin	-11	0
bin	-10	0
bin	-9	0
bin	-8	0
bin	-7	0
bin	-6	0
bin	-5	0
bin	-4	0
bin	-3	0
bin	-2	0
bin	-1	0
bin	0	1
bin	1	1
bin	2	1
bin	3	2
bin	4	1
bin	5	2
bin	6	2
bin	7	1
bin	8	1
bin	9	1
bin	10	1
bin	11	1
bin	12	1
bin	13	1
bin	14	1
bin	15	1
bin	16	1
bin	17	1
bin	18	1
bin	19	2
bin	20	0
bin	21	0
bin	22	0
bin	23	0
bin	24	0
bin	25	0
bin	26	0
bin	27	8
bin	28	1
bin	29	1
bin	30	1
bin	31	1
bin	32	2
bin	33	0
bin	34	0
bin	35	0
bin	36	0
bin	37	0
bin	38	0
bin	39	0
bin	40	8
bin	41	1
bin	42	1
bin	43	1
bin	44	1
bin	45	1
bin	46	1
bin	47	1
bin	48	1
bin	49	1
bin	50	1
bin	51	1
bin	52	1
bin	53	1
bin	54	1
bin	55	1
bin	56	1
bin	57	1
bin	58	1
bin	59	1
bin	60	1
bin	61	1
bin	62	0
bin	63	2
bin	64	0
bin	65	0
bin	66	0
bin	67	0
bin	68	0
bin	69	0
bin	70	0
bin	71	8
bin	72	2
bin	73	1
bin	74	1
bin	75	1
bin	76	1
bin	77	1
bin	78	1
bin	79	1
bin	80	1
bin	81	1
bin	82	2
bin	83	2
bin	84	1
bin	85	1
bin	86	2
bin	87	0
bin	88	0
bin	89	0
bin	90	0
bin	91	0
bin	92	0
bin	93	7
bin	94	1
bin	95	1
bin	96	1
bin	97	1
bin	98	1
bin	99	2
bin	100	0
bin	101	0
bin	102	0
bin	103	0
bin	104	0
bin	105	0
bin	106	7
bin	107	1
bin	108	1
bin	109	1
bin	110	1
bin	111	1
bin	112	2
bin	113	0
bin	114	0
bin	115	0
bin	116	0
bin	117	0
bin	118	0
bin	119	7
bin	120	1
bin	121	1
bin	122	1
bin	123	1
bin	124	0
bin	125	2
bin	126	0
bin	127	0
bin	128	0
bin	129	0
bin	130	0
bin	131	0
bin	132	7
bin	133	1
bin	134	2
bin	135	1
bin	136	1
bin	137	1
bin	138	1
bin	139	1
bin	140	637
scalar SimphonyDHTNetwork.members[36] 	#packetsInTheNetwork 	698
statistic SimphonyDHTNetwork.members[36] 	"packets statistics"
field count 751
field mean 349.95206391478
field stddev 202.07209365076
field sum 262814
field sqrsum 122597150
field min 0
field max 697
attr type  int
bin	-INF	0
bin	-45	0
bin	-44	0
bin	-43	0
bin	-42	0
bin	-41	0
bin	-40	0
bin	-39	0
bin	-38	0
bin	-37	0
bin	-36	0
bin	-35	0
bin	-34	0
bin	-33	0
bin	-32	0
bin	-31	0
bin	-30	0
bin	-29	0
bin	-28	0
bin	-27	0
bin	-26	0
bin	-25	0
bin	-24	0
bin	-23	0
bin	-22	0
bin	-21	0
bin	-20	0
bin	-19	0
bin	-18	0
bin	-17	0
bin	-16	0
bin	-15	0
bin	-14	0
bin	-13	0
bin	-12	0
bin	-11	0
bin	-10	0
bin	-9	0
bin	-8	0
bin	-7	0
bin	-6	0
bin	-5	0
bin	-4	0
bin	-3	0
bin	-2	0
bin	-1	0
bin	0	1
bin	1	1
bin	2	1
bin	3	2
bin	4	0
bin	5	0
bin	6	0
bin	7	0
bin	8	0
bin	9	0
bin	10	0
bin	11	8
bin	12	1
bin	13	1
bin	14	1
bin	15	1
bin	16	1
bin	17	1
bin	18	1
bin	19	1
bin	20	1
bin	21	1
bin	22	1
bin	23	2
bin	24	0
bin	25	0
bin	26	0
bin	27	0
bin	28	0
bin	29	0
bin	30	0
bin	31	8
bin	32	1
bin	33	1
bin	34	1
bin	35	1
bin	36	1
bin	37	1
bin	38	1
bin	39	1
bin	40	1
bin	41	1
bin	42	1
bin	43	1
bin	44	1
bin	45	2
bin	46	0
bin	47	0
bin	48	0
bin	49	0
bin	50	0
bin	51	0
bin	52	0
bin	53	8
bin	54	1
bin	55	1
bin	56	1
bin	57	1
bin	58	2
bin	59	0
bin	60	0
bin	61	0
bin	62	0
bin	63	0
bin	64	0
bin	65	0
bin	66	8
bin	67	1
bin	68	1
bin	69	1
bin	70	1
bin	71	1
bin	72	1
bin	73	1
bin	74	1
bin	75	2
bin	76	1
bin	77	1
bin	78	1
bin	79	2
bin	80	1
bin	81	1
bin	82	1
bin	83	2
bin	84	1
bin	85	2
bin	86	2
bin	87	1
bin	88	1
bin	89	1
bin	90	1
bin	91	1
bin	92	1
bin	93	1
bin	94	1
bin	95	1
bin	96	1
bin	97	1
bin	98	1
bin	99	1
bin	100	1
bin	101	1
bin	102	1
bin	103	1
bin	104	1
bin	105	1
bin	106	1
bin	107	1
bin	108	1
bin	109	1
bin	110	1
bin	111	1
bin	112	1
bin	113	1
bin	114	1
bin	115	2
bin	116	0
bin	117	0
bin	118	0
bin	119	0
bin	120	0
bin	121	6
bin	122	1
bin	123	1
bin	124	1
bin	125	1
bin	126	1
bin	127	1
bin	128	1
bin	129	1
bin	130	1
bin	131	1
bin	132	2
bin	133	0
bin	134	0
bin	135	607
scalar SimphonyDHTNetwork.members[37] 	#packetsInTheNetwork 	722
statistic SimphonyDHTNetwork.members[37] 	"packets statistics"
field count 760
field mean 362.96052631579
field stddev 207.87324738245
field sum 275850
field sqrsum 132920028
field min 0
field max 721
attr type  int
bin	-INF	0
bin	-48	0
bin	-47	0
bin	-46	0
bin	-45	0
bin	-44	0
bin	-43	0
bin	-42	0
bin	-41	0
bin	-40	0
bin	-39	0
bin	-38	0
bin	-37	0
bin	-36	0
bin	-35	0
bin	-34	0
bin	-33	0
bin	-32	0
bin	-31	0
bin	-30	0
bin	-29	0
bin	-28	0
bin	-27	0
bin	-26	0
bin	-25	0
bin	-24	0
bin	-23	0
bin	-22	0
bin	-21	0
bin	-20	0
bin	-19	0
bin	-18	0
bin	-17	0
bin	-16	0
bin	-15	0
bin	-14	0
bin	-13	0
bin	-12	0
bin	-11	0
bin	-10	0
bin	-9	0
bin	-8	0
bin	-7	0
bin	-6	0
bin	-5	0
bin	-4	0
bin	-3	0
bin	-2	0
bin	-1	0
bin	0	1
bin	1	1
bin	2	1
bin	3	1
bin	4	2
bin	5	0
bin	6	0
bin	7	0
bin	8	0
bin	9	0
bin	10	0
bin	11	0
bin	12	8
bin	13	1
bin	14	1
bin	15	1
bin	16	1
bin	17	1
bin	18	1
bin	19	1
bin	20	1
bin	21	1
bin	22	1
bin	23	1
bin	24	1
bin	25	1
bin	26	1
bin	27	1
bin	28	1
bin	29	1
bin	30	1
bin	31	1
bin	32	1
bin	33	1
bin	34	1
bin	35	1
bin	36	1
bin	37	1
bin	38	1
bin	39	1
bin	40	1
bin	41	1
bin	42	1
bin	43	1
bin	44	1
bin	45	1
bin	46	1
bin	47	1
bin	48	1
bin	49	1
bin	50	1
bin	51	1
bin	52	1
bin	53	1
bin	54	1
bin	55	1
bin	56	1
bin	57	1
bin	58	1
bin	59	1
bin	60	1
bin	61	1
bin	62	1
bin	63	1
bin	64	1
bin	65	2
bin	66	0
bin	67	0
bin	68	0
bin	69	0
bin	70	0
bin	71	0
bin	72	0
bin	73	8
bin	74	1
bin	75	1
bin	76	1
bin	77	1
bin	78	2
bin	79	0
bin	80	0
bin	81	0
bin	82	0
bin	83	0
bin	84	0
bin	85	0
bin	86	8
bin	87	1
bin	88	1
bin	89	1
bin	90	1
bin	91	1
bin	92	1
bin	93	1
bin	94	1
bin	95	1
bin	96	1
bin	97	1
bin	98	1
bin	99	1
bin	100	1
bin	101	1
bin	102	1
bin	103	1
bin	104	1
bin	105	1
bin	106	1
bin	107	1
bin	108	1
bin	109	1
bin	110	1
bin	111	1
bin	112	1
bin	113	1
bin	114	1
bin	115	1
bin	116	1
bin	117	1
bin	118	2
bin	119	0
bin	120	0
bin	121	0
bin	122	0
bin	123	0
bin	124	6
bin	125	1
bin	126	1
bin	127	1
bin	128	1
bin	129	1
bin	130	1
bin	131	1
bin	132	1
bin	133	1
bin	134	1
bin	135	1
bin	136	1
bin	137	1
bin	138	1
bin	139	1
bin	140	1
bin	141	1
bin	142	1
bin	143	1
bin	144	612
scalar SimphonyDHTNetwork.members[38] 	#packetsInTheNetwork 	874
statistic SimphonyDHTNetwork.members[38] 	"packets statistics"
field count 930
field mean 438.2
field stddev 252.21406835378
field sum 407526
field sqrsum 237673382
field min 0
field max 873
attr type  int
bin	-INF	0
bin	-48	0
bin	-47	0
bin	-46	0
bin	-45	0
bin	-44	0
bin	-43	0
bin	-42	0
bin	-41	0
bin	-40	0
bin	-39	0
bin	-38	0
bin	-37	0
bin	-36	0
bin	-35	0
bin	-34	0
bin	-33	0
bin	-32	0
bin	-31	0
bin	-30	0
bin	-29	0
bin	-28	0
bin	-27	0
bin	-26	0
bin	-25	0
bin	-24	0
bin	-23	0
bin	-22	0
bin	-21	0
bin	-20	0
bin	-19	0
bin	-18	0
bin	-17	0
bin	-16	0
bin	-15	0
bin	-14	0
bin	-13	0
bin	-12	0
bin	-11	0
bin	-10	0
bin	-9	0
bin	-8	0
bin	-7	0
bin	-6	0
bin	-5	0
bin	-4	0
bin	-3	0
bin	-2	0
bin	-1	0
bin	0	1
bin	1	1
bin	2	1
bin	3	1
bin	4	1
bin	5	2
bin	6	0
bin	7	0
bin	8	0
bin	9	0
bin	10	0
bin	11	0
bin	12	0
bin	13	8
bin	14	1
bin	15	1
bin	16	1
bin	17	1
bin	18	1
bin	19	1
bin	20	1
bin	21	1
bin	22	1
bin	23	1
bin	24	1
bin	25	1
bin	26	1
bin	27	1
bin	28	1
bin	29	1
bin	30	1
bin	31	1
bin	32	1
bin	33	1
bin	34	1
bin	35	1
bin	36	1
bin	37	1
bin	38	1
bin	39	1
bin	40	1
bin	41	1
bin	42	2
bin	43	1
bin	44	1
bin	45	2
bin	46	0
bin	47	0
bin	48	0
bin	49	0
bin	50	0
bin	51	0
bin	52	0
bin	53	8
bin	54	1
bin	55	1
bin	56	1
bin	57	1
bin	58	2
bin	59	0
bin	60	0
bin	61	0
bin	62	0
bin	63	0
bin	64	0
bin	65	0
bin	66	8
bin	67	1
bin	68	1
bin	69	1
bin	70	1
bin	71	1
bin	72	2
bin	73	0
bin	74	0
bin	75	0
bin	76	0
bin	77	0
bin	78	0
[...]
bin	-32	0
bin	-31	0
bin	-30	0
bin	-29	0
bin	-28	0
bin	-27	0
bin	-26	0
bin	-25	0
bin	-24	0
bin	-23	0
bin	-22	0
bin	-21	0
bin	-20	0
bin	-19	0
bin	-18	0
bin	-17	0
bin	-16	0
bin	-15	0
bin	-14	0
bin	-13	0
bin	-12	0
bin	-11	0
bin	-10	0
bin	-9	0
bin	-8	0
bin	-7	0
bin	-6	0
bin	-5	0
bin	-4	0
bin	-3	0
bin	-2	0
bin	-1	0
bin	0	1
bin	1	0
bin	2	0
bin	3	1
bin	4	3
bin	5	0
bin	6	0
bin	7	2
bin	8	0
bin	9	1
bin	10	2
bin	11	1
bin	12	1
bin	13	1
bin	14	2
bin	15	0
bin	16	0
bin	17	3
bin	18	1
bin	19	1
bin	20	2
bin	21	0
bin	22	0
bin	23	3
bin	24	1
bin	25	1
bin	26	2
bin	27	1
bin	28	1
bin	29	1
bin	30	2
bin	31	0
bin	32	0
bin	33	0
bin	34	4
bin	35	1
bin	36	1
bin	37	1
bin	38	1
bin	39	1
bin	40	2
bin	41	0
bin	42	0
bin	43	0
bin	44	4
bin	45	1
bin	46	1
bin	47	1
bin	48	1
bin	49	1
bin	50	2
bin	51	0
bin	52	0
bin	53	0
bin	54	4
bin	55	1
bin	56	1
bin	57	1
bin	58	1
bin	59	1
bin	60	2
bin	61	0
bin	62	0
bin	63	0
bin	64	4
bin	65	1
bin	66	1
bin	67	1
bin	68	1
bin	69	1
bin	70	2
bin	71	0
bin	72	0
bin	73	0
bin	74	4
bin	75	1
bin	76	1
bin	77	1
bin	78	1
bin	79	1
bin	80	1
bin	81	2
bin	82	0
bin	83	0
bin	84	0
bin	85	4
bin	86	1
bin	87	1
bin	88	1
bin	89	1
bin	90	2
bin	91	0
bin	92	0
bin	93	0
bin	94	4
bin	95	1
bin	96	1
bin	97	1
bin	98	1
bin	99	1
bin	100	1
bin	101	1
bin	102	1
bin	103	2
bin	104	0
bin	105	0
bin	106	0
bin	107	4
bin	108	1
bin	109	1
bin	110	1
bin	111	1
bin	112	1
bin	113	1
bin	114	2
bin	115	0
bin	116	0
bin	117	0
bin	118	4
bin	119	1
bin	120	1
bin	121	1
bin	122	1
bin	123	1
bin	124	2
bin	125	0
bin	126	0
bin	127	0
bin	128	4
bin	129	1
bin	130	1
bin	131	1
bin	132	1
bin	133	1
bin	134	2
bin	135	39
scalar SimphonyDHTNetwork.members[240] 	#packetsInTheNetwork 	50
statistic SimphonyDHTNetwork.members[240] 	"packets statistics"
field count 54
field mean 25.407407407407
field stddev 14.01282232022
field sum 1372
field sqrsum 45266
field min 0
field max 49
attr type  int
bin	-INF	0
bin	-25	0
bin	-24	0
bin	-23	0
bin	-22	0
bin	-21	0
bin	-20	0
bin	-19	0
bin	-18	0
bin	-17	0
bin	-16	0
bin	-15	0
bin	-14	0
bin	-13	0
bin	-12	0
bin	-11	0
bin	-10	0
bin	-9	0
bin	-8	0
bin	-7	0
bin	-6	0
bin	-5	0
bin	-4	0
bin	-3	0
bin	-2	0
bin	-1	0
bin	0	1
bin	1	0
bin	2	0
bin	3	1
bin	4	3
bin	5	0
bin	6	0
bin	7	2
bin	8	0
bin	9	2
bin	10	1
bin	11	1
bin	12	2
bin	13	0
bin	14	0
bin	15	3
bin	16	1
bin	17	1
bin	18	2
bin	19	0
bin	20	0
bin	21	0
bin	22	4
bin	23	1
bin	24	2
bin	25	1
bin	26	1
bin	27	1
bin	28	1
bin	29	2
bin	30	0
bin	31	0
bin	32	0
bin	33	4
bin	34	1
bin	35	1
bin	36	1
bin	37	1
bin	38	1
bin	39	1
bin	40	1
bin	41	2
bin	42	0
bin	43	0
bin	44	0
bin	45	4
bin	46	1
bin	47	1
bin	48	1
bin	49	1
bin	50	0
bin	51	0
bin	52	0
bin	53	0
bin	54	0
bin	55	0
bin	56	0
bin	57	0
bin	58	0
bin	59	0
bin	60	0
bin	61	0
bin	62	0
bin	63	0
bin	64	0
bin	65	0
bin	66	0
bin	67	0
bin	68	0
bin	69	0
bin	70	0
bin	71	0
bin	72	0
bin	73	0
bin	74	0
scalar SimphonyDHTNetwork.members[241] 	#packetsInTheNetwork 	50
statistic SimphonyDHTNetwork.members[241] 	"packets statistics"
field count 54
field mean 25.555555555556
field stddev 13.877722974918
field sum 1380
field sqrsum 45474
field min 0
field max 49
attr type  int
bin	-INF	0
bin	-25	0
bin	-24	0
bin	-23	0
bin	-22	0
bin	-21	0
bin	-20	0
bin	-19	0
bin	-18	0
bin	-17	0
bin	-16	0
bin	-15	0
bin	-14	0
bin	-13	0
bin	-12	0
bin	-11	0
bin	-10	0
bin	-9	0
bin	-8	0
bin	-7	0
bin	-6	0
bin	-5	0
bin	-4	0
bin	-3	0
bin	-2	0
bin	-1	0
bin	0	1
bin	1	0
bin	2	0
bin	3	1
bin	4	3
bin	5	0
bin	6	0
bin	7	1
bin	8	2
bin	9	0
bin	10	1
bin	11	1
bin	12	2
bin	13	1
bin	14	2
bin	15	0
bin	16	1
bin	17	2
bin	18	1
bin	19	1
bin	20	2
bin	21	0
bin	22	0
bin	23	3
bin	24	1
bin	25	1
bin	26	1
bin	27	1
bin	28	1
bin	29	2
bin	30	0
bin	31	0
bin	32	3
bin	33	1
bin	34	1
bin	35	2
bin	36	1
bin	37	0
bin	38	0
bin	39	3
bin	40	1
bin	41	2
bin	42	1
bin	43	1
bin	44	1
bin	45	1
bin	46	1
bin	47	1
bin	48	1
bin	49	1
bin	50	0
bin	51	0
bin	52	0
bin	53	0
bin	54	0
bin	55	0
bin	56	0
bin	57	0
bin	58	0
bin	59	0
bin	60	0
bin	61	0
bin	62	0
bin	63	0
bin	64	0
bin	65	0
bin	66	0
bin	67	0
bin	68	0
bin	69	0
bin	70	0
bin	71	0
bin	72	0
bin	73	0
bin	74	0
scalar SimphonyDHTNetwork.members[242] 	#packetsInTheNetwork 	30
statistic SimphonyDHTNetwork.members[242] 	"packets statistics"
field count 32
field mean 15.5625
field stddev 8.2655035168522
field sum 498
field sqrsum 9868
field min 0
field max 29
attr type  int
bin	-INF	0
bin	-15	0
bin	-14	0
bin	-13	0
bin	-12	0
bin	-11	0
bin	-10	0
bin	-9	0
bin	-8	0
bin	-7	0
bin	-6	0
bin	-5	0
bin	-4	0
bin	-3	0
bin	-2	0
bin	-1	0
bin	0	1
bin	1	0
bin	2	0
bin	3	1
bin	4	3
bin	5	0
bin	6	0
bin	7	2
bin	8	0
bin	9	1
bin	10	2
bin	11	1
bin	12	1
bin	13	2
bin	14	0
bin	15	2
bin	16	1
bin	17	1
bin	18	1
bin	19	2
bin	20	0
bin	21	0
bin	22	3
bin	23	1
bin	24	2
bin	25	1
bin	26	1
bin	27	1
bin	28	1
bin	29	1
bin	30	0
bin	31	0
bin	32	0
bin	33	0
bin	34	0
bin	35	0
bin	36	0
bin	37	0
bin	38	0
bin	39	0
bin	40	0
bin	41	0
bin	42	0
bin	43	0
bin	44	0
scalar SimphonyDHTNetwork.members[243] 	#packetsInTheNetwork 	205
statistic SimphonyDHTNetwork.members[243] 	"packets statistics"
field count 223
field mean 103.17488789238
field stddev 59.324811339062
field sum 23008
field sqrsum 3155162
field min 0
field max 204
attr type  int
bin	-INF	0
bin	-46	0
bin	-45	0
bin	-44	0
bin	-43	0
bin	-42	0
bin	-41	0
bin	-40	0
bin	-39	0
bin	-38	0
bin	-37	0
bin	-36	0
bin	-35	0
bin	-34	0
bin	-33	0
bin	-32	0
bin	-31	0
bin	-30	0
bin	-29	0
bin	-28	0
bin	-27	0
bin	-26	0
bin	-25	0
bin	-24	0
bin	-23	0
bin	-22	0
bin	-21	0
bin	-20	0
bin	-19	0
bin	-18	0
bin	-17	0
bin	-16	0
bin	-15	0
bin	-14	0
bin	-13	0
bin	-12	0
bin	-11	0
bin	-10	0
bin	-9	0
bin	-8	0
bin	-7	0
bin	-6	0
bin	-5	0
bin	-4	0
bin	-3	0
bin	-2	0
bin	-1	0
bin	0	1
bin	1	0
bin	2	0
bin	3	1
bin	4	3
bin	5	0
bin	6	0
bin	7	2
bin	8	0
bin	9	2
bin	10	1
bin	11	1
bin	12	2
bin	13	0
bin	14	0
bin	15	3
bin	16	1
bin	17	1
bin	18	2
bin	19	0
bin	20	0
bin	21	0
bin	22	4
bin	23	1
bin	24	2
bin	25	1
bin	26	1
bin	27	1
bin	28	1
bin	29	2
bin	30	0
bin	31	0
bin	32	0
bin	33	0
bin	34	5
bin	35	1
bin	36	1
bin	37	1
bin	38	1
bin	39	1
bin	40	1
bin	41	2
bin	42	0
bin	43	0
bin	44	0
bin	45	0
bin	46	5
bin	47	1
bin	48	1
bin	49	1
bin	50	1
bin	51	1
bin	52	2
bin	53	0
bin	54	0
bin	55	0
bin	56	0
bin	57	5
bin	58	1
bin	59	1
bin	60	1
bin	61	1
bin	62	1
bin	63	1
bin	64	1
bin	65	1
bin	66	1
bin	67	1
bin	68	2
bin	69	1
bin	70	1
bin	71	2
bin	72	1
bin	73	0
bin	74	0
bin	75	0
bin	76	0
bin	77	0
bin	78	6
bin	79	1
bin	80	1
bin	81	1
bin	82	1
bin	83	1
bin	84	2
bin	85	0
bin	86	0
bin	87	0
bin	88	0
bin	89	0
bin	90	6
bin	91	1
bin	92	1
bin	93	1
bin	94	1
bin	95	2
bin	96	0
bin	97	0
bin	98	0
bin	99	0
bin	100	0
bin	101	6
bin	102	1
bin	103	1
bin	104	1
bin	105	1
bin	106	1
bin	107	1
bin	108	2
bin	109	0
bin	110	0
bin	111	0
bin	112	0
bin	113	0
bin	114	6
bin	115	1
bin	116	1
bin	117	1
bin	118	1
bin	119	1
bin	120	1
bin	121	2
bin	122	0
bin	123	0
bin	124	0
bin	125	0
bin	126	0
bin	127	6
bin	128	1
bin	129	1
bin	130	1
bin	131	1
bin	132	1
bin	133	1
bin	134	2
bin	135	0
bin	136	0
bin	137	76
scalar SimphonyDHTNetwork.members[244] 	#packetsInTheNetwork 	78
statistic SimphonyDHTNetwork.members[244] 	"packets statistics"
field count 86
field mean 39.581395348837
field stddev 22.018957135255
field sum 3404
field sqrsum 175946
field min 0
field max 77
attr type  int
bin	-INF	0
bin	-39	0
bin	-38	0
bin	-37	0
bin	-36	0
bin	-35	0
bin	-34	0
bin	-33	0
bin	-32	0
bin	-31	0
bin	-30	0
bin	-29	0
bin	-28	0
bin	-27	0
bin	-26	0
bin	-25	0
bin	-24	0
bin	-23	0
bin	-22	0
bin	-21	0
bin	-20	0
bin	-19	0
bin	-18	0
bin	-17	0
bin	-16	0
bin	-15	0
bin	-14	0
bin	-13	0
bin	-12	0
bin	-11	0
bin	-10	0
bin	-9	0
bin	-8	0
bin	-7	0
bin	-6	0
bin	-5	0
bin	-4	0
bin	-3	0
bin	-2	0
bin	-1	0
bin	0	1
bin	1	0
bin	2	0
bin	3	1
bin	4	3
bin	5	0
bin	6	0
bin	7	1
bin	8	2
bin	9	0
bin	10	1
bin	11	1
bin	12	2
bin	13	1
bin	14	2
bin	15	0
bin	16	1
bin	17	2
bin	18	1
bin	19	1
bin	20	1
bin	21	2
bin	22	0
bin	23	2
bin	24	1
bin	25	1
bin	26	2
bin	27	0
bin	28	0
bin	29	3
bin	30	1
bin	31	1
bin	32	1
bin	33	1
bin	34	1
bin	35	2
bin	36	0
bin	37	0
bin	38	3
bin	39	1
bin	40	1
bin	41	1
bin	42	2
bin	43	1
bin	44	1
bin	45	1
bin	46	2
bin	47	0
bin	48	0
bin	49	3
bin	50	1
bin	51	1
bin	52	1
bin	53	1
bin	54	1
bin	55	2
bin	56	0
bin	57	0
bin	58	3
bin	59	1
bin	60	1
bin	61	1
bin	62	1
bin	63	1
bin	64	2
bin	65	0
bin	66	0
bin	67	3
bin	68	1
bin	69	1
bin	70	1
bin	71	1
bin	72	2
bin	73	0
bin	74	0
bin	75	3
bin	76	1
bin	77	1
bin	78	0
bin	79	0
bin	80	0
bin	81	0
bin	82	0
bin	83	0
bin	84	0
bin	85	0
bin	86	0
bin	87	0
bin	88	0
bin	89	0
bin	90	0
bin	91	0
bin	92	0
bin	93	0
bin	94	0
bin	95	0
bin	96	0
bin	97	0
bin	98	0
bin	99	0
bin	100	0
bin	101	0
bin	102	0
bin	103	0
bin	104	0
bin	105	0
bin	106	0
bin	107	0
bin	108	0
bin	109	0
bin	110	0
bin	111	0
bin	112	0
bin	113	0
bin	114	0
bin	115	0
bin	116	0
scalar SimphonyDHTNetwork.members[245] 	#packetsInTheNetwork 	88
statistic SimphonyDHTNetwork.members[245] 	"packets statistics"
field count 96
field mean 44.583333333333
field stddev 24.978587321172
field sum 4280
field sqrsum 250090
field min 0
field max 87
attr type  int
bin	-INF	0
bin	-44	0
bin	-43	0
bin	-42	0
bin	-41	0
bin	-40	0
bin	-39	0
bin	-38	0
bin	-37	0
bin	-36	0
bin	-35	0
bin	-34	0
bin	-33	0
bin	-32	0
bin	-31	0
bin	-30	0
bin	-29	0
bin	-28	0
bin	-27	0
bin	-26	0
bin	-25	0
bin	-24	0
bin	-23	0
bin	-22	0
bin	-21	0
bin	-20	0
bin	-19	0
bin	-18	0
bin	-17	0
bin	-16	0
bin	-15	0
bin	-14	0
bin	-13	0
bin	-12	0
bin	-11	0
bin	-10	0
bin	-9	0
bin	-8	0
bin	-7	0
bin	-6	0
bin	-5	0
bin	-4	0
bin	-3	0
bin	-2	0
bin	-1	0
bin	0	1
bin	1	0
bin	2	0
bin	3	1
bin	4	3
bin	5	0
bin	6	0
bin	7	1
bin	8	2
bin	9	0
bin	10	1
bin	11	1
bin	12	2
bin	13	1
bin	14	2
bin	15	0
bin	16	1
bin	17	2
bin	18	1
bin	19	1
bin	20	1
bin	21	1
bin	22	1
bin	23	1
bin	24	2
bin	25	2
bin	26	0
bin	27	0
bin	28	3
bin	29	1
bin	30	0
bin	31	0
bin	32	3
bin	33	1
bin	34	1
bin	35	1
bin	36	1
bin	37	1
bin	38	1
bin	39	1
bin	40	2
bin	41	0
bin	42	0
bin	43	3
bin	44	1
bin	45	1
bin	46	2
bin	47	0
bin	48	0
bin	49	0
bin	50	4
bin	51	1
bin	52	1
bin	53	2
bin	54	1
bin	55	1
bin	56	1
bin	57	1
bin	58	1
bin	59	1
bin	60	2
bin	61	0
bin	62	0
bin	63	0
bin	64	4
bin	65	1
bin	66	1
bin	67	1
bin	68	1
bin	69	1
bin	70	2
bin	71	0
bin	72	0
bin	73	0
bin	74	4
bin	75	1
bin	76	1
bin	77	1
bin	78	1
bin	79	1
bin	80	2
bin	81	0
bin	82	0
bin	83	0
bin	84	4
bin	85	1
bin	86	1
bin	87	1
bin	88	0
bin	89	0
bin	90	0
bin	91	0
bin	92	0
bin	93	0
bin	94	0
bin	95	0
bin	96	0
bin	97	0
bin	98	0
bin	99	0
bin	100	0
bin	101	0
bin	102	0
bin	103	0
bin	104	0
bin	105	0
bin	106	0
bin	107	0
bin	108	0
bin	109	0
bin	110	0
bin	111	0
bin	112	0
bin	113	0
bin	114	0
bin	115	0
bin	116	0
bin	117	0
bin	118	0
bin	119	0
bin	120	0
bin	121	0
bin	122	0
bin	123	0
bin	124	0
bin	125	0
bin	126	0
bin	127	0
bin	128	0
bin	129	0
bin	130	0
bin	131	0
scalar SimphonyDHTNetwork.members[246] 	#packetsInTheNetwork 	93
statistic SimphonyDHTNetwork.members[246] 	"packets statistics"
field count 102
field mean 46.745098039216
field stddev 26.312548779197
field sum 4768
field sqrsum 292808
field min 0
field max 92
attr type  int
bin	-INF	0
bin	-45	0
bin	-44	0
bin	-43	0
bin	-42	0
bin	-41	0
bin	-40	0
bin	-39	0
bin	-38	0
bin	-37	0
bin	-36	0
bin	-35	0
bin	-34	0
bin	-33	0
bin	-32	0
bin	-31	0
bin	-30	0
bin	-29	0
bin	-28	0
bin	-27	0
bin	-26	0
bin	-25	0
bin	-24	0
bin	-23	0
bin	-22	0
bin	-21	0
bin	-20	0
bin	-19	0
bin	-18	0
bin	-17	0
bin	-16	0
bin	-15	0
bin	-14	0
bin	-13	0
bin	-12	0
bin	-11	0
bin	-10	0
bin	-9	0
bin	-8	0
bin	-7	0
bin	-6	0
bin	-5	0
bin	-4	0
bin	-3	0
bin	-2	0
bin	-1	0
bin	0	1
bin	1	0
bin	2	0
bin	3	1
bin	4	3
bin	5	0
bin	6	0
bin	7	1
bin	8	2
bin	9	0
bin	10	1
bin	11	2
bin	12	1
bin	13	2
bin	14	0
bin	15	1
bin	16	2
bin	17	1
bin	18	1
bin	19	1
bin	20	1
bin	21	1
bin	22	2
bin	23	2
bin	24	0
bin	25	0
bin	26	3
bin	27	1
bin	28	0
bin	29	0
bin	30	3
bin	31	1
bin	32	1
bin	33	1
bin	34	2
bin	35	0
bin	36	0
bin	37	3
bin	38	1
bin	39	1
bin	40	1
bin	41	1
bin	42	2
bin	43	1
bin	44	1
bin	45	1
bin	46	2
bin	47	0
bin	48	0
bin	49	3
bin	50	1
bin	51	1
bin	52	1
bin	53	1
bin	54	2
bin	55	0
bin	56	0
bin	57	3
bin	58	1
bin	59	1
bin	60	1
bin	61	1
bin	62	1
bin	63	1
bin	64	1
bin	65	1
bin	66	1
bin	67	2
bin	68	0
bin	69	0
bin	70	3
bin	71	1
bin	72	1
bin	73	1
bin	74	1
bin	75	2
bin	76	0
bin	77	0
bin	78	3
bin	79	1
bin	80	1
bin	81	1
bin	82	1
bin	83	1
bin	84	2
bin	85	0
bin	86	0
bin	87	3
bin	88	1
bin	89	1
bin	90	1
bin	91	1
bin	92	1
bin	93	0
bin	94	0
bin	95	0
bin	96	0
bin	97	0
bin	98	0
bin	99	0
bin	100	0
bin	101	0
bin	102	0
bin	103	0
bin	104	0
bin	105	0
bin	106	0
bin	107	0
bin	108	0
bin	109	0
bin	110	0
bin	111	0
bin	112	0
bin	113	0
bin	114	0
bin	115	0
bin	116	0
bin	117	0
bin	118	0
bin	119	0
bin	120	0
bin	121	0
bin	122	0
bin	123	0
bin	124	0
bin	125	0
bin	126	0
bin	127	0
bin	128	0
bin	129	0
bin	130	0
bin	131	0
bin	132	0
bin	133	0
bin	134	0
bin	135	0
scalar SimphonyDHTNetwork.members[247] 	#packetsInTheNetwork 	63
statistic SimphonyDHTNetwork.members[247] 	"packets statistics"
field count 68
field mean 31.852941176471
field stddev 17.790878684166
field sum 2166
field sqrsum 90200
field min 0
field max 62
attr type  int
bin	-INF	0
bin	-31	0
bin	-30	0
bin	-29	0
bin	-28	0
bin	-27	0
bin	-26	0
bin	-25	0
bin	-24	0
bin	-23	0
bin	-22	0
bin	-21	0
bin	-20	0
bin	-19	0
bin	-18	0
bin	-17	0
bin	-16	0
bin	-15	0
bin	-14	0
bin	-13	0
bin	-12	0
bin	-11	0
bin	-10	0
bin	-9	0
bin	-8	0
bin	-7	0
bin	-6	0
bin	-5	0
bin	-4	0
bin	-3	0
bin	-2	0
bin	-1	0
bin	0	1
bin	1	0
bin	2	0
bin	3	1
bin	4	3
bin	5	0
bin	6	0
bin	7	2
bin	8	0
bin	9	1
bin	10	2
bin	11	1
bin	12	1
bin	13	1
bin	14	2
bin	15	0
bin	16	0
bin	17	3
bin	18	1
bin	19	1
bin	20	2
bin	21	0
bin	22	0
bin	23	3
bin	24	1
bin	25	1
bin	26	2
bin	27	1
bin	28	1
bin	29	2
bin	30	0
bin	31	0
bin	32	0
bin	33	4
bin	34	1
bin	35	1
bin	36	1
bin	37	1
bin	38	1
bin	39	1
bin	40	1
bin	41	2
bin	42	0
bin	43	0
bin	44	0
bin	45	4
bin	46	1
bin	47	1
bin	48	1
bin	49	1
bin	50	1
bin	51	1
bin	52	1
bin	53	1
bin	54	1
bin	55	1
bin	56	2
bin	57	0
bin	58	0
bin	59	0
bin	60	4
bin	61	1
bin	62	1
bin	63	0
bin	64	0
bin	65	0
bin	66	0
bin	67	0
bin	68	0
bin	69	0
bin	70	0
bin	71	0
bin	72	0
bin	73	0
bin	74	0
bin	75	0
bin	76	0
bin	77	0
bin	78	0
bin	79	0
bin	80	0
bin	81	0
bin	82	0
bin	83	0
bin	84	0
bin	85	0
bin	86	0
bin	87	0
bin	88	0
bin	89	0
bin	90	0
bin	91	0
bin	92	0
bin	93	0
scalar SimphonyDHTNetwork.members[248] 	#packetsInTheNetwork 	24
statistic SimphonyDHTNetwork.members[248] 	"packets statistics"
field count 26
field mean 12.692307692308
field stddev 6.6499277034821
field sum 330
field sqrsum 5294
field min 0
field max 23
attr type  int
bin	-INF	0
bin	-12	0
bin	-11	0
bin	-10	0
bin	-9	0
bin	-8	0
bin	-7	0
bin	-6	0
bin	-5	0
bin	-4	0
bin	-3	0
bin	-2	0
bin	-1	0
bin	0	1
bin	1	0
bin	2	0
bin	3	1
bin	4	3
bin	5	0
bin	6	0
bin	7	2
bin	8	0
bin	9	2
bin	10	1
bin	11	1
bin	12	2
bin	13	0
bin	14	2
bin	15	1
bin	16	1
bin	17	2
bin	18	0
bin	19	2
bin	20	1
bin	21	2
bin	22	1
bin	23	1
bin	24	0
bin	25	0
bin	26	0
bin	27	0
bin	28	0
bin	29	0
bin	30	0
bin	31	0
bin	32	0
bin	33	0
bin	34	0
bin	35	0
scalar SimphonyDHTNetwork.members[249] 	#packetsInTheNetwork 	23
statistic SimphonyDHTNetwork.members[249] 	"packets statistics"
field count 25
field mean 12.4
field stddev 6.5891324669236
field sum 310
field sqrsum 4886
field min 0
field max 22
attr type  int
bin	-INF	0
bin	-11	0
bin	-10	0
bin	-9	0
bin	-8	0
bin	-7	0
bin	-6	0
bin	-5	0
bin	-4	0
bin	-3	0
bin	-2	0
bin	-1	0
bin	0	1
bin	1	0
bin	2	0
bin	3	1
bin	4	3
bin	5	0
bin	6	0
bin	7	2
bin	8	0
bin	9	2
bin	10	1
bin	11	1
bin	12	2
bin	13	0
bin	14	2
bin	15	1
bin	16	1
bin	17	2
bin	18	0
bin	19	0
bin	20	3
bin	21	1
bin	22	2
bin	23	0
bin	24	0
bin	25	0
bin	26	0
bin	27	0
bin	28	0
bin	29	0
bin	30	0
bin	31	0
bin	32	0
bin	33	0
scalar SimphonyDHTNetwork.members[250] 	#packetsInTheNetwork 	29
statistic SimphonyDHTNetwork.members[250] 	"packets statistics"
field count 31
field mean 15.193548387097
field stddev 8.1011083802926
field sum 471
field sqrsum 9125
field min 0
field max 28
attr type  int
bin	-INF	0
bin	-14	0
bin	-13	0
bin	-12	0
bin	-11	0
bin	-10	0
bin	-9	0
bin	-8	0
bin	-7	0
bin	-6	0
bin	-5	0
bin	-4	0
bin	-3	0
bin	-2	0
bin	-1	0
bin	0	1
bin	1	0
bin	2	0
bin	3	1
bin	4	3
bin	5	0
bin	6	0
bin	7	2
bin	8	0
bin	9	2
bin	10	1
bin	11	1
bin	12	2
bin	13	0
bin	14	0
bin	15	3
bin	16	1
bin	17	1
bin	18	2
bin	19	0
bin	20	0
bin	21	0
bin	22	4
bin	23	1
bin	24	2
bin	25	1
bin	26	1
bin	27	1
bin	28	1
bin	29	0
bin	30	0
bin	31	0
bin	32	0
bin	33	0
bin	34	0
bin	35	0
bin	36	0
bin	37	0
bin	38	0
bin	39	0
bin	40	0
bin	41	0
bin	42	0
scalar SimphonyDHTNetwork.members[251] 	#packetsInTheNetwork 	29
statistic SimphonyDHTNetwork.members[251] 	"packets statistics"
field count 31
field mean 15.322580645161
field stddev 8.2598914309822
field sum 475
field sqrsum 9325
field min 0
field max 28
attr type  int
bin	-INF	0
bin	-14	0
bin	-13	0
bin	-12	0
bin	-11	0
bin	-10	0
bin	-9	0
bin	-8	0
bin	-7	0
bin	-6	0
bin	-5	0
bin	-4	0
bin	-3	0
bin	-2	0
bin	-1	0
bin	0	1
bin	1	0
bin	2	0
bin	3	1
bin	4	3
bin	5	0
bin	6	0
bin	7	2
bin	8	0
bin	9	2
bin	10	1
bin	11	1
bin	12	2
bin	13	0
bin	14	0
bin	15	3
bin	16	1
bin	17	1
bin	18	1
bin	19	1
bin	20	2
bin	21	0
bin	22	0
bin	23	0
bin	24	4
bin	25	1
bin	26	2
bin	27	1
bin	28	1
bin	29	0
bin	30	0
bin	31	0
bin	32	0
bin	33	0
bin	34	0
bin	35	0
bin	36	0
bin	37	0
bin	38	0
bin	39	0
bin	40	0
bin	41	0
bin	42	0
scalar SimphonyDHTNetwork.members[252] 	#packetsInTheNetwork 	35
statistic SimphonyDHTNetwork.members[252] 	"packets statistics"
field count 38
field mean 18.657894736842
field stddev 10.142968049515
field sum 709
field sqrsum 17035
field min 0
field max 35
attr type  int
bin	-INF	0
bin	-18	0
bin	-17	0
bin	-16	0
bin	-15	0
bin	-14	0
bin	-13	0
bin	-12	0
bin	-11	0
bin	-10	0
bin	-9	0
bin	-8	0
bin	-7	0
bin	-6	0
bin	-5	0
bin	-4	0
bin	-3	0
bin	-2	0
bin	-1	0
bin	0	1
bin	1	0
bin	2	0
bin	3	1
bin	4	3
bin	5	0
bin	6	0
bin	7	1
bin	8	2
bin	9	0
bin	10	1
bin	11	2
bin	12	1
bin	13	2
bin	14	0
bin	15	1
bin	16	2
bin	17	1
bin	18	1
bin	19	1
bin	20	1
bin	21	1
bin	22	1
bin	23	1
bin	24	2
bin	25	0
bin	26	0
bin	27	3
bin	28	1
bin	29	1
bin	30	2
bin	31	0
bin	32	0
bin	33	3
bin	34	1
bin	35	1
bin	36	0
bin	37	0
bin	38	0
bin	39	0
bin	40	0
bin	41	0
bin	42	0
bin	43	0
bin	44	0
bin	45	0
bin	46	0
bin	47	0
bin	48	0
bin	49	0
bin	50	0
bin	51	0
bin	52	0
bin	53	0
scalar SimphonyDHTNetwork.members[253] 	#packetsInTheNetwork 	28
statistic SimphonyDHTNetwork.members[253] 	"packets statistics"
field count 30
field mean 15.066666666667
field stddev 8.1364795120847
field sum 452
field sqrsum 8730
field min 0
field max 27
attr type  int
bin	-INF	0
bin	-14	0
bin	-13	0
bin	-12	0
bin	-11	0
bin	-10	0
bin	-9	0
bin	-8	0
bin	-7	0
bin	-6	0
bin	-5	0
bin	-4	0
bin	-3	0
bin	-2	0
bin	-1	0
bin	0	1
bin	1	0
bin	2	0
bin	3	1
bin	4	3
bin	5	0
bin	6	0
bin	7	2
bin	8	0
bin	9	1
bin	10	2
bin	11	1
bin	12	1
bin	13	1
bin	14	2
bin	15	0
bin	16	0
bin	17	3
bin	18	1
bin	19	1
bin	20	1
bin	21	2
bin	22	0
bin	23	0
bin	24	0
bin	25	4
bin	26	1
bin	27	2
bin	28	0
bin	29	0
bin	30	0
bin	31	0
bin	32	0
bin	33	0
bin	34	0
bin	35	0
bin	36	0
bin	37	0
bin	38	0
bin	39	0
bin	40	0
bin	41	0
scalar SimphonyDHTNetwork.members[254] 	#packetsInTheNetwork 	28
statistic SimphonyDHTNetwork.members[254] 	"packets statistics"
field count 30
field mean 14.866666666667
field stddev 7.933922512653
field sum 446
field sqrsum 8456
field min 0
field max 27
attr type  int
bin	-INF	0
bin	-14	0
bin	-13	0
bin	-12	0
bin	-11	0
bin	-10	0
bin	-9	0
bin	-8	0
bin	-7	0
bin	-6	0
bin	-5	0
bin	-4	0
bin	-3	0
bin	-2	0
bin	-1	0
bin	0	1
bin	1	0
bin	2	0
bin	3	1
bin	4	3
bin	5	0
bin	6	0
bin	7	2
bin	8	0
bin	9	1
bin	10	2
bin	11	1
bin	12	1
bin	13	2
bin	14	0
bin	15	0
bin	16	3
bin	17	1
bin	18	1
bin	19	1
bin	20	2
bin	21	1
bin	22	0
bin	23	0
bin	24	3
bin	25	1
bin	26	2
bin	27	1
bin	28	0
bin	29	0
bin	30	0
bin	31	0
bin	32	0
bin	33	0
bin	34	0
bin	35	0
bin	36	0
bin	37	0
bin	38	0
bin	39	0
bin	40	0
bin	41	0
scalar SimphonyDHTNetwork.members[255] 	#packetsInTheNetwork 	24
statistic SimphonyDHTNetwork.members[255] 	"packets statistics"
field count 26
field mean 13.115384615385
field stddev 7.1067681716906
field sum 341
field sqrsum 5735
field min 0
field max 24
attr type  int
bin	-INF	0
bin	-12	0
bin	-11	0
bin	-10	0
bin	-9	0
bin	-8	0
bin	-7	0
bin	-6	0
bin	-5	0
bin	-4	0
bin	-3	0
bin	-2	0
bin	-1	0
bin	0	1
bin	1	0
bin	2	0
bin	3	1
bin	4	3
bin	5	0
bin	6	0
bin	7	2
bin	8	0
bin	9	2
bin	10	1
bin	11	1
bin	12	2
bin	13	0
bin	14	0
bin	15	3
bin	16	1
bin	17	1
bin	18	2
bin	19	0
bin	20	0
bin	21	0
bin	22	4
bin	23	1
bin	24	1
bin	25	0
bin	26	0
bin	27	0
bin	28	0
bin	29	0
bin	30	0
bin	31	0
bin	32	0
bin	33	0
bin	34	0
bin	35	0
bin	36	0
