version 2
run allAtOnce-50-20130122-19:22:09-3044
attr configname allAtOnce
attr datetime 20130122-19:22:09
attr experiment allAtOnce
attr inifile omnetpp.ini
attr iterationvars "$0=512, $1=1000"
attr iterationvars2 "$0=512, $1=1000, $repetition=0"
attr measurement "$0=512, $1=1000"
attr network SimphonyDHTNetwork
attr processid 3044
attr repetition 0
attr replication #0
attr resultdir results
attr runnumber 50
attr seedset 50

scalar SimphonyDHTNetwork.members[0] 	#packetsInTheNetwork 	1990
statistic SimphonyDHTNetwork.members[0] 	"packets statistics"
field count 2109
field mean 991.48980559507
field stddev 575.8049530375
field sum 2091052
field sqrsum 2772166974
field min 0
field max 1989
attr type  int
bin	-INF	0
bin	-47	0
bin	-46	0
bin	-45	0
bin	-44	0
bin	-43	0
bin	-42	0
bin	-41	0
bin	-40	0
bin	-39	0
bin	-38	0
bin	-37	0
bin	-36	0
bin	-35	0
bin	-34	0
bin	-33	0
bin	-32	0
bin	-31	0
bin	-30	0
bin	-29	0
bin	-28	0
bin	-27	0
bin	-26	0
bin	-25	0
bin	-24	0
bin	-23	0
bin	-22	0
bin	-21	0
bin	-20	0
bin	-19	0
bin	-18	0
bin	-17	0
bin	-16	0
bin	-15	0
bin	-14	0
bin	-13	0
bin	-12	0
bin	-11	0
bin	-10	0
bin	-9	0
bin	-8	0
bin	-7	0
bin	-6	0
bin	-5	0
bin	-4	0
bin	-3	0
bin	-2	0
bin	-1	0
bin	0	1
bin	1	1
bin	2	1
bin	3	1
bin	4	2
bin	5	0
bin	6	0
bin	7	0
bin	8	0
bin	9	5
bin	10	1
bin	11	1
bin	12	1
bin	13	1
bin	14	2
bin	15	0
bin	16	0
bin	17	0
bin	18	0
bin	19	5
bin	20	1
bin	21	1
bin	22	1
bin	23	1
bin	24	1
bin	25	1
bin	26	1
bin	27	1
bin	28	2
bin	29	0
bin	30	0
bin	31	0
bin	32	0
bin	33	5
bin	34	1
bin	35	1
bin	36	1
bin	37	1
bin	38	1
bin	39	1
bin	40	1
bin	41	1
bin	42	2
bin	43	0
bin	44	0
bin	45	0
bin	46	0
bin	47	5
bin	48	1
bin	49	1
bin	50	1
bin	51	1
bin	52	1
bin	53	2
bin	54	0
bin	55	0
bin	56	0
bin	57	0
bin	58	5
bin	59	1
bin	60	1
bin	61	1
bin	62	1
bin	63	1
bin	64	1
bin	65	2
bin	66	0
bin	67	0
bin	68	0
bin	69	0
bin	70	5
bin	71	1
bin	72	1
bin	73	1
bin	74	1
bin	75	1
bin	76	1
bin	77	1
bin	78	1
bin	79	1
bin	80	1
bin	81	1
bin	82	1
bin	83	1
bin	84	1
bin	85	1
bin	86	1
bin	87	1
bin	88	2
bin	89	0
bin	90	0
bin	91	0
bin	92	0
bin	93	5
bin	94	1
bin	95	1
bin	96	1
bin	97	1
bin	98	1
bin	99	1
bin	100	1
bin	101	1
bin	102	1
bin	103	1
bin	104	1
bin	105	1
bin	106	1
bin	107	1
bin	108	1
bin	109	2
bin	110	0
bin	111	0
bin	112	0
bin	113	0
bin	114	5
bin	115	1
bin	116	1
bin	117	1
bin	118	1
bin	119	1
bin	120	1
bin	121	1
bin	122	1
bin	123	2
bin	124	0
bin	125	0
bin	126	0
bin	127	0
bin	128	5
bin	129	1
bin	130	1
bin	131	1
bin	132	1
bin	133	1
bin	134	2
bin	135	0
bin	136	0
bin	137	0
bin	138	0
bin	139	5
bin	140	1959
scalar SimphonyDHTNetwork.members[1] 	#packetsInTheNetwork 	6150
statistic SimphonyDHTNetwork.members[1] 	"packets statistics"
field count 6641
field mean 3077.4693570245
field stddev 1773.1979275771
field sum 20437474
field sqrsum 83773393082
field min 0
field max 6149
attr type  int
bin	-INF	0
bin	-46	0
bin	-45	0
bin	-44	0
bin	-43	0
bin	-42	0
bin	-41	0
bin	-40	0
bin	-39	0
bin	-38	0
bin	-37	0
bin	-36	0
bin	-35	0
bin	-34	0
bin	-33	0
bin	-32	0
bin	-31	0
bin	-30	0
bin	-29	0
bin	-28	0
bin	-27	0
bin	-26	0
bin	-25	0
bin	-24	0
bin	-23	0
bin	-22	0
bin	-21	0
bin	-20	0
bin	-19	0
bin	-18	0
bin	-17	0
bin	-16	0
bin	-15	0
bin	-14	0
bin	-13	0
bin	-12	0
bin	-11	0
bin	-10	0
bin	-9	0
bin	-8	0
bin	-7	0
bin	-6	0
bin	-5	0
bin	-4	0
bin	-3	0
bin	-2	0
bin	-1	0
bin	0	1
bin	1	1
bin	2	1
bin	3	2
bin	4	1
bin	5	1
bin	6	2
bin	7	0
bin	8	0
bin	9	0
bin	10	0
bin	11	0
bin	12	6
bin	13	1
bin	14	1
bin	15	1
bin	16	1
bin	17	1
bin	18	1
bin	19	1
bin	20	1
bin	21	1
bin	22	1
bin	23	1
bin	24	2
bin	25	1
bin	26	1
bin	27	1
bin	28	1
bin	29	1
bin	30	2
bin	31	0
bin	32	0
bin	33	0
bin	34	0
bin	35	0
bin	36	0
bin	37	7
bin	38	1
bin	39	1
bin	40	1
bin	41	1
bin	42	1
bin	43	1
bin	44	1
bin	45	1
bin	46	1
bin	47	2
bin	48	1
bin	49	1
bin	50	1
bin	51	1
bin	52	1
bin	53	2
bin	54	0
bin	55	0
bin	56	0
bin	57	0
bin	58	0
bin	59	0
bin	60	0
bin	61	8
bin	62	1
bin	63	1
bin	64	1
bin	65	1
bin	66	1
bin	67	1
bin	68	1
bin	69	1
bin	70	1
bin	71	1
bin	72	1
bin	73	1
bin	74	1
bin	75	1
bin	76	1
bin	77	1
bin	78	2
bin	79	0
bin	80	0
bin	81	0
bin	82	0
bin	83	0
bin	84	0
bin	85	0
bin	86	8
bin	87	1
bin	88	1
bin	89	1
bin	90	1
bin	91	1
bin	92	1
bin	93	0
bin	94	2
bin	95	0
bin	96	0
bin	97	0
bin	98	0
bin	99	0
bin	100	0
bin	101	0
bin	102	8
bin	103	1
bin	104	2
bin	105	1
bin	106	1
bin	107	2
bin	108	1
bin	109	1
bin	110	1
bin	111	1
bin	112	1
bin	113	1
bin	114	1
bin	115	2
bin	116	1
bin	117	1
bin	118	2
bin	119	1
bin	120	1
bin	121	1
bin	122	1
bin	123	1
bin	124	2
bin	125	0
bin	126	0
bin	127	0
bin	128	0
bin	129	0
bin	130	0
bin	131	0
bin	132	8
bin	133	1
bin	134	1
bin	135	1
bin	136	1
bin	137	1
bin	138	6491
scalar SimphonyDHTNetwork.members[2] 	#packetsInTheNetwork 	4318
statistic SimphonyDHTNetwork.members[2] 	"packets statistics"
field count 4658
field mean 2156.7067410906
field stddev 1249.4058902851
field sum 10045940
field sqrsum 28935793740
field min 0
field max 4317
attr type  int
bin	-INF	0
bin	-46	0
bin	-45	0
bin	-44	0
bin	-43	0
bin	-42	0
bin	-41	0
bin	-40	0
bin	-39	0
bin	-38	0
bin	-37	0
bin	-36	0
bin	-35	0
bin	-34	0
bin	-33	0
bin	-32	0
bin	-31	0
bin	-30	0
bin	-29	0
bin	-28	0
bin	-27	0
bin	-26	0
bin	-25	0
bin	-24	0
bin	-23	0
bin	-22	0
bin	-21	0
bin	-20	0
bin	-19	0
bin	-18	0
bin	-17	0
bin	-16	0
bin	-15	0
bin	-14	0
bin	-13	0
bin	-12	0
bin	-11	0
bin	-10	0
bin	-9	0
bin	-8	0
bin	-7	0
bin	-6	0
bin	-5	0
bin	-4	0
bin	-3	0
bin	-2	0
bin	-1	0
bin	0	1
bin	1	1
bin	2	1
bin	3	1
bin	4	2
bin	5	0
bin	6	0
bin	7	0
bin	8	0
bin	9	5
bin	10	1
bin	11	1
bin	12	1
bin	13	1
bin	14	1
bin	15	1
bin	16	1
bin	17	1
bin	18	1
bin	19	2
bin	20	1
bin	21	1
bin	22	1
bin	23	1
bin	24	1
bin	25	2
bin	26	0
bin	27	0
bin	28	0
bin	29	0
bin	30	0
bin	31	6
bin	32	1
bin	33	1
bin	34	1
bin	35	1
bin	36	1
bin	37	1
bin	38	2
bin	39	0
bin	40	0
bin	41	0
bin	42	0
bin	43	0
bin	44	6
bin	45	1
bin	46	1
bin	47	1
bin	48	1
bin	49	1
bin	50	1
bin	51	1
bin	52	1
bin	53	2
bin	54	0
bin	55	0
bin	56	0
bin	57	0
bin	58	0
bin	59	6
bin	60	1
bin	61	1
bin	62	1
bin	63	1
bin	64	1
bin	65	1
bin	66	1
bin	67	1
bin	68	1
bin	69	1
bin	70	1
bin	71	1
bin	72	1
bin	73	2
bin	74	1
bin	75	1
bin	76	1
bin	77	1
bin	78	1
bin	79	1
bin	80	1
bin	81	2
bin	82	0
bin	83	0
bin	84	0
bin	85	0
bin	86	0
bin	87	0
bin	88	7
bin	89	1
bin	90	1
bin	91	1
bin	92	1
bin	93	1
bin	94	1
bin	95	1
bin	96	1
bin	97	2
bin	98	1
bin	99	1
bin	100	1
bin	101	1
bin	102	2
bin	103	0
bin	104	0
bin	105	0
bin	106	0
bin	107	0
bin	108	0
bin	109	0
bin	110	8
bin	111	1
bin	112	1
bin	113	1
bin	114	1
bin	115	1
bin	116	1
bin	117	2
bin	118	1
bin	119	1
bin	120	1
bin	121	1
bin	122	2
bin	123	1
bin	124	1
bin	125	2
bin	126	1
bin	127	1
bin	128	1
bin	129	1
bin	130	1
bin	131	1
bin	132	1
bin	133	1
bin	134	2
bin	135	1
bin	136	1
bin	137	1
bin	138	4507
scalar SimphonyDHTNetwork.members[3] 	#packetsInTheNetwork 	4922
statistic SimphonyDHTNetwork.members[3] 	"packets statistics"
field count 5308
field mean 2454.8291258478
field stddev 1417.7184381975
field sum 13030233
field sqrsum 42653670485
field min 0
field max 4921
attr type  int
bin	-INF	0
bin	-49	0
bin	-48	0
bin	-47	0
bin	-46	0
bin	-45	0
bin	-44	0
bin	-43	0
bin	-42	0
bin	-41	0
bin	-40	0
bin	-39	0
bin	-38	0
bin	-37	0
bin	-36	0
bin	-35	0
bin	-34	0
bin	-33	0
bin	-32	0
bin	-31	0
bin	-30	0
bin	-29	0
bin	-28	0
bin	-27	0
bin	-26	0
bin	-25	0
bin	-24	0
bin	-23	0
bin	-22	0
bin	-21	0
bin	-20	0
bin	-19	0
bin	-18	0
bin	-17	0
bin	-16	0
bin	-15	0
bin	-14	0
bin	-13	0
bin	-12	0
bin	-11	0
bin	-10	0
bin	-9	0
bin	-8	0
bin	-7	0
bin	-6	0
bin	-5	0
bin	-4	0
bin	-3	0
bin	-2	0
bin	-1	0
bin	0	1
bin	1	1
bin	2	1
bin	3	1
bin	4	1
bin	5	2
bin	6	0
bin	7	0
bin	8	0
bin	9	0
bin	10	5
bin	11	1
bin	12	1
bin	13	1
bin	14	1
bin	15	1
bin	16	1
bin	17	2
bin	18	1
bin	19	1
bin	20	1
bin	21	1
bin	22	1
bin	23	1
bin	24	1
bin	25	2
bin	26	0
bin	27	0
bin	28	0
bin	29	0
bin	30	0
bin	31	6
bin	32	1
bin	33	1
bin	34	1
bin	35	2
bin	36	1
bin	37	1
bin	38	2
bin	39	0
bin	40	0
bin	41	0
bin	42	0
bin	43	0
bin	44	0
bin	45	7
bin	46	1
bin	47	1
bin	48	1
bin	49	1
bin	50	1
bin	51	1
bin	52	1
bin	53	2
bin	54	0
bin	55	0
bin	56	0
bin	57	0
bin	58	0
bin	59	0
bin	60	7
bin	61	1
bin	62	1
bin	63	1
bin	64	1
bin	65	1
bin	66	1
bin	67	1
bin	68	1
bin	69	1
bin	70	1
bin	71	1
bin	72	1
bin	73	1
bin	74	1
bin	75	1
bin	76	1
bin	77	1
bin	78	1
bin	79	1
bin	80	1
bin	81	2
bin	82	1
bin	83	1
bin	84	1
bin	85	1
bin	86	1
bin	87	1
bin	88	1
bin	89	1
bin	90	2
bin	91	0
bin	92	0
bin	93	0
bin	94	0
bin	95	0
bin	96	0
bin	97	0
bin	98	8
bin	99	1
bin	100	1
bin	101	1
bin	102	1
bin	103	2
bin	104	1
bin	105	1
bin	106	1
bin	107	2
bin	108	0
bin	109	0
bin	110	0
bin	111	0
bin	112	0
bin	113	0
bin	114	0
bin	115	8
bin	116	1
bin	117	1
bin	118	1
bin	119	1
bin	120	1
bin	121	2
bin	122	1
bin	123	1
bin	124	1
bin	125	1
bin	126	2
bin	127	0
bin	128	0
bin	129	0
bin	130	0
bin	131	0
bin	132	0
bin	133	0
bin	134	8
bin	135	1
bin	136	1
bin	137	1
bin	138	1
bin	139	2
bin	140	0
bin	141	0
bin	142	0
bin	143	0
bin	144	0
bin	145	0
bin	146	0
bin	147	5155
scalar SimphonyDHTNetwork.members[4] 	#packetsInTheNetwork 	3530
statistic SimphonyDHTNetwork.members[4] 	"packets statistics"
field count 3817
field mean 1766.2706313859
field stddev 1017.6448139493
field sum 6741855
field sqrsum 15859793779
field min 0
field max 3529
attr type  int
bin	-INF	0
bin	-48	0
bin	-47	0
bin	-46	0
bin	-45	0
bin	-44	0
bin	-43	0
bin	-42	0
bin	-41	0
bin	-40	0
bin	-39	0
bin	-38	0
bin	-37	0
bin	-36	0
bin	-35	0
bin	-34	0
bin	-33	0
bin	-32	0
bin	-31	0
bin	-30	0
bin	-29	0
bin	-28	0
bin	-27	0
bin	-26	0
bin	-25	0
bin	-24	0
bin	-23	0
bin	-22	0
bin	-21	0
bin	-20	0
bin	-19	0
bin	-18	0
bin	-17	0
bin	-16	0
bin	-15	0
bin	-14	0
bin	-13	0
bin	-12	0
bin	-11	0
bin	-10	0
bin	-9	0
bin	-8	0
bin	-7	0
bin	-6	0
bin	-5	0
bin	-4	0
bin	-3	0
bin	-2	0
bin	-1	0
bin	0	1
bin	1	1
bin	2	1
bin	3	1
bin	4	1
bin	5	2
bin	6	0
bin	7	0
bin	8	0
bin	9	0
bin	10	5
bin	11	1
bin	12	1
bin	13	1
bin	14	1
bin	15	1
bin	16	1
bin	17	1
bin	18	1
bin	19	2
bin	20	0
bin	21	0
bin	22	0
bin	23	0
bin	24	5
bin	25	1
bin	26	1
bin	27	1
bin	28	1
bin	29	1
bin	30	1
bin	31	1
bin	32	1
bin	33	1
bin	34	2
bin	35	0
bin	36	0
bin	37	0
bin	38	0
bin	39	5
bin	40	1
bin	41	1
bin	42	1
bin	43	1
bin	44	1
bin	45	1
bin	46	1
bin	47	1
bin	48	1
bin	49	1
bin	50	1
bin	51	1
bin	52	1
bin	53	1
bin	54	2
bin	55	0
bin	56	0
bin	57	0
bin	58	0
bin	59	5
bin	60	1
bin	61	1
bin	62	1
bin	63	1
bin	64	1
bin	65	1
bin	66	1
bin	67	1
bin	68	2
bin	69	0
bin	70	0
bin	71	0
bin	72	0
bin	73	5
bin	74	1
bin	75	1
bin	76	1
bin	77	1
bin	78	1
bin	79	1
bin	80	2
bin	81	0
bin	82	0
bin	83	0
bin	84	0
bin	85	5
bin	86	1
bin	87	1
bin	88	1
bin	89	1
bin	90	1
bin	91	2
bin	92	0
bin	93	0
bin	94	0
bin	95	0
bin	96	5
bin	97	1
bin	98	1
bin	99	1
bin	100	1
bin	101	2
bin	102	1
bin	103	1
bin	104	2
bin	105	0
bin	106	0
bin	107	0
bin	108	0
bin	109	0
bin	110	6
bin	111	1
bin	112	1
bin	113	1
bin	114	1
bin	115	1
bin	116	2
bin	117	0
bin	118	0
bin	119	0
bin	120	0
bin	121	0
bin	122	6
bin	123	1
bin	124	1
bin	125	1
bin	126	1
bin	127	1
bin	128	2
bin	129	0
bin	130	0
bin	131	0
bin	132	0
bin	133	0
bin	134	6
bin	135	1
bin	136	1
bin	137	1
bin	138	1
bin	139	1
bin	140	2
bin	141	0
bin	142	0
bin	143	0
bin	144	3664
scalar SimphonyDHTNetwork.members[5] 	#packetsInTheNetwork 	2994
statistic SimphonyDHTNetwork.members[5] 	"packets statistics"
field count 3234
field mean 1498.0080395795
field stddev 862.41025439673
field sum 4844558
field sqrsum 9661735260
field min 0
field max 2993
attr type  int
bin	-INF	0
bin	-48	0
bin	-47	0
bin	-46	0
bin	-45	0
bin	-44	0
bin	-43	0
bin	-42	0
bin	-41	0
bin	-40	0
bin	-39	0
bin	-38	0
bin	-37	0
bin	-36	0
bin	-35	0
bin	-34	0
bin	-33	0
bin	-32	0
bin	-31	0
bin	-30	0
bin	-29	0
bin	-28	0
bin	-27	0
bin	-26	0
bin	-25	0
bin	-24	0
bin	-23	0
bin	-22	0
bin	-21	0
bin	-20	0
bin	-19	0
bin	-18	0
bin	-17	0
bin	-16	0
bin	-15	0
bin	-14	0
bin	-13	0
bin	-12	0
bin	-11	0
bin	-10	0
bin	-9	0
bin	-8	0
bin	-7	0
bin	-6	0
bin	-5	0
bin	-4	0
bin	-3	0
bin	-2	0
bin	-1	0
bin	0	1
bin	1	1
bin	2	1
bin	3	1
bin	4	1
bin	5	1
bin	6	1
bin	7	1
bin	8	1
bin	9	1
bin	10	2
bin	11	0
bin	12	0
bin	13	0
bin	14	0
bin	15	5
bin	16	1
bin	17	1
bin	18	1
bin	19	1
bin	20	1
bin	21	1
bin	22	1
bin	23	2
bin	24	0
bin	25	0
bin	26	0
bin	27	0
bin	28	5
bin	29	1
bin	30	1
bin	31	1
bin	32	1
bin	33	1
bin	34	1
bin	35	1
bin	36	1
bin	37	2
bin	38	1
bin	39	1
bin	40	1
bin	41	1
bin	42	1
bin	43	2
bin	44	0
bin	45	0
bin	46	0
bin	47	0
bin	48	0
bin	49	6
bin	50	1
bin	51	1
bin	52	1
bin	53	1
bin	54	1
bin	55	1
bin	56	2
bin	57	1
bin	58	1
bin	59	1
bin	60	1
bin	61	0
bin	62	2
bin	63	0
bin	64	0
bin	65	0
bin	66	0
bin	67	0
bin	68	0
bin	69	7
bin	70	1
bin	71	2
bin	72	1
bin	73	1
bin	74	2
bin	75	0
bin	76	0
bin	77	0
bin	78	0
bin	79	0
bin	80	0
bin	81	7
bin	82	1
bin	83	1
bin	84	1
bin	85	1
bin	86	1
bin	87	1
bin	88	2
bin	89	0
bin	90	0
bin	91	0
bin	92	0
bin	93	0
bin	94	0
bin	95	7
bin	96	1
bin	97	1
bin	98	1
bin	99	1
bin	100	1
bin	101	1
bin	102	2
bin	103	0
bin	104	0
bin	105	0
bin	106	0
bin	107	0
bin	108	0
bin	109	7
bin	110	1
bin	111	1
bin	112	1
bin	113	1
bin	114	1
bin	115	2
bin	116	0
bin	117	0
bin	118	0
bin	119	0
bin	120	0
bin	121	0
bin	122	7
bin	123	1
bin	124	1
bin	125	1
bin	126	1
bin	127	1
bin	128	2
bin	129	0
bin	130	0
bin	131	0
bin	132	0
bin	133	0
bin	134	0
bin	135	7
bin	136	1
bin	137	1
bin	138	1
bin	139	1
bin	140	1
bin	141	2
bin	142	0
bin	143	3080
scalar SimphonyDHTNetwork.members[6] 	#packetsInTheNetwork 	3616
statistic SimphonyDHTNetwork.members[6] 	"packets statistics"
field count 3900
field mean 1810.0415384615
field stddev 1043.5737054984
field sum 7059162
field sqrsum 17023567108
field min 0
field max 3615
attr type  int
bin	-INF	0
bin	-46	0
bin	-45	0
bin	-44	0
bin	-43	0
bin	-42	0
bin	-41	0
bin	-40	0
bin	-39	0
bin	-38	0
bin	-37	0
bin	-36	0
bin	-35	0
bin	-34	0
bin	-33	0
bin	-32	0
bin	-31	0
bin	-30	0
bin	-29	0
bin	-28	0
bin	-27	0
bin	-26	0
bin	-25	0
bin	-24	0
bin	-23	0
bin	-22	0
bin	-21	0
bin	-20	0
bin	-19	0
bin	-18	0
bin	-17	0
bin	-16	0
bin	-15	0
bin	-14	0
bin	-13	0
bin	-12	0
bin	-11	0
bin	-10	0
bin	-9	0
bin	-8	0
bin	-7	0
bin	-6	0
bin	-5	0
bin	-4	0
bin	-3	0
bin	-2	0
bin	-1	0
bin	0	1
bin	1	1
bin	2	1
bin	3	1
bin	4	1
bin	5	1
bin	6	1
bin	7	1
bin	8	2
bin	9	0
bin	10	0
bin	11	0
bin	12	0
bin	13	5
bin	14	1
bin	15	1
bin	16	1
bin	17	1
bin	18	1
bin	19	1
bin	20	1
bin	21	1
bin	22	2
bin	23	0
bin	24	0
bin	25	0
bin	26	0
bin	27	5
bin	28	1
bin	29	1
bin	30	1
bin	31	1
bin	32	1
bin	33	2
bin	34	1
bin	35	1
bin	36	1
bin	37	1
bin	38	1
bin	39	2
bin	40	0
bin	41	0
bin	42	0
bin	43	0
bin	44	0
bin	45	6
bin	46	1
bin	47	1
bin	48	1
bin	49	1
bin	50	1
bin	51	2
bin	52	0
bin	53	0
bin	54	0
bin	55	0
bin	56	0
bin	57	6
bin	58	1
bin	59	1
bin	60	1
bin	61	1
bin	62	1
bin	63	2
bin	64	1
bin	65	1
bin	66	2
bin	67	0
bin	68	0
bin	69	0
bin	70	0
bin	71	0
bin	72	0
bin	73	7
bin	74	1
bin	75	1
bin	76	1
bin	77	1
bin	78	1
bin	79	1
bin	80	2
bin	81	0
bin	82	0
bin	83	0
bin	84	0
bin	85	0
bin	86	0
bin	87	7
bin	88	1
bin	89	1
bin	90	1
bin	91	1
bin	92	1
bin	93	1
bin	94	1
bin	95	2
bin	96	0
bin	97	0
bin	98	0
bin	99	0
bin	100	0
bin	101	0
bin	102	7
bin	103	1
bin	104	1
bin	105	1
bin	106	1
bin	107	1
bin	108	1
bin	109	2
bin	110	0
bin	111	0
bin	112	0
bin	113	0
bin	114	0
bin	115	0
bin	116	7
bin	117	1
bin	118	1
bin	119	1
bin	120	1
bin	121	1
bin	122	1
bin	123	2
bin	124	0
bin	125	0
bin	126	0
bin	127	0
bin	128	0
bin	129	0
bin	130	7
bin	131	1
bin	132	1
bin	133	1
bin	134	1
bin	135	1
bin	136	2
bin	137	3751
scalar SimphonyDHTNetwork.members[7] 	#packetsInTheNetwork 	2280
statistic SimphonyDHTNetwork.members[7] 	"packets statistics"
field count 2487
field mean 1137.2102935263
field stddev 658.97890337942
field sum 2828242
field sqrsum 4295859358
field min 0
field max 2279
attr type  int
bin	-INF	0
bin	-45	0
bin	-44	0
bin	-43	0
bin	-42	0
bin	-41	0
bin	-40	0
bin	-39	0
bin	-38	0
bin	-37	0
bin	-36	0
bin	-35	0
bin	-34	0
bin	-33	0
bin	-32	0
bin	-31	0
bin	-30	0
bin	-29	0
bin	-28	0
bin	-27	0
bin	-26	0
bin	-25	0
bin	-24	0
bin	-23	0
bin	-22	0
bin	-21	0
bin	-20	0
bin	-19	0
bin	-18	0
bin	-17	0
bin	-16	0
bin	-15	0
bin	-14	0
bin	-13	0
bin	-12	0
bin	-11	0
bin	-10	0
bin	-9	0
bin	-8	0
bin	-7	0
bin	-6	0
bin	-5	0
bin	-4	0
bin	-3	0
bin	-2	0
bin	-1	0
bin	0	1
bin	1	1
bin	2	1
bin	3	1
bin	4	1
bin	5	1
bin	6	1
bin	7	2
bin	8	0
bin	9	0
bin	10	0
bin	11	0
bin	12	5
bin	13	1
bin	14	1
bin	15	1
bin	16	1
bin	17	1
bin	18	1
bin	19	2
bin	20	1
bin	21	1
bin	22	2
bin	23	0
bin	24	0
bin	25	0
bin	26	0
bin	27	0
bin	28	6
bin	29	1
bin	30	1
bin	31	1
bin	32	1
bin	33	2
bin	34	0
bin	35	0
bin	36	0
bin	37	0
bin	38	0
bin	39	6
bin	40	1
bin	41	1
bin	42	1
bin	43	2
bin	44	0
bin	45	0
bin	46	0
bin	47	0
bin	48	0
bin	49	6
bin	50	1
bin	51	1
bin	52	1
bin	53	1
bin	54	1
bin	55	1
bin	56	2
bin	57	2
bin	58	1
bin	59	1
bin	60	2
bin	61	0
bin	62	0
bin	63	0
bin	64	0
bin	65	0
bin	66	6
bin	67	1
bin	68	1
bin	69	1
bin	70	1
bin	71	1
bin	72	2
bin	73	0
bin	74	0
bin	75	0
bin	76	0
bin	77	0
bin	78	6
bin	79	1
bin	80	1
bin	81	1
bin	82	1
bin	83	1
bin	84	1
bin	85	1
bin	86	1
bin	87	1
bin	88	1
bin	89	1
bin	90	1
bin	91	2
bin	92	0
bin	93	0
bin	94	0
bin	95	0
bin	96	0
bin	97	6
bin	98	1
bin	99	1
bin	100	1
bin	101	1
bin	102	1
bin	103	1
bin	104	1
bin	105	1
bin	106	2
bin	107	2
bin	108	1
bin	109	1
bin	110	2
bin	111	0
bin	112	0
bin	113	0
bin	114	0
bin	115	0
bin	116	6
bin	117	1
bin	118	1
bin	119	1
bin	120	1
bin	121	1
bin	122	2
bin	123	0
bin	124	0
bin	125	0
bin	126	0
bin	127	0
bin	128	6
bin	129	1
bin	130	1
bin	131	1
bin	132	1
bin	133	1
bin	134	2
bin	135	2337
scalar SimphonyDHTNetwork.members[8] 	#packetsInTheNetwork 	2864
statistic SimphonyDHTNetwork.members[8] 	"packets statistics"
field count 3074
field mean 1430.9534808068
field stddev 824.13734727967
field sum 4398751
field sqrsum 8381596929
field min 0
field max 2863
attr type  int
bin	-INF	0
bin	-47	0
bin	-46	0
bin	-45	0
bin	-44	0
bin	-43	0
bin	-42	0
bin	-41	0
bin	-40	0
bin	-39	0
bin	-38	0
bin	-37	0
bin	-36	0
bin	-35	0
bin	-34	0
bin	-33	0
bin	-32	0
bin	-31	0
bin	-30	0
bin	-29	0
bin	-28	0
bin	-27	0
bin	-26	0
bin	-25	0
bin	-24	0
bin	-23	0
bin	-22	0
bin	-21	0
bin	-20	0
bin	-19	0
bin	-18	0
bin	-17	0
bin	-16	0
bin	-15	0
bin	-14	0
bin	-13	0
bin	-12	0
bin	-11	0
bin	-10	0
bin	-9	0
bin	-8	0
bin	-7	0
bin	-6	0
bin	-5	0
bin	-4	0
bin	-3	0
bin	-2	0
bin	-1	0
bin	0	1
bin	1	1
bin	2	1
bin	3	1
bin	4	1
bin	5	1
bin	6	2
bin	7	0
bin	8	0
bin	9	0
bin	10	0
bin	11	0
bin	12	6
bin	13	1
bin	14	1
bin	15	1
bin	16	1
bin	17	1
bin	18	1
bin	19	1
bin	20	1
bin	21	1
bin	22	2
bin	23	0
bin	24	0
bin	25	0
bin	26	0
bin	27	0
bin	28	6
bin	29	1
bin	30	1
bin	31	1
bin	32	1
bin	33	1
bin	34	1
bin	35	1
bin	36	1
bin	37	1
bin	38	2
bin	39	1
bin	40	2
bin	41	2
bin	42	1
bin	43	1
bin	44	1
bin	45	1
bin	46	1
bin	47	1
bin	48	1
bin	49	1
bin	50	1
bin	51	1
bin	52	1
bin	53	1
bin	54	1
bin	55	1
bin	56	2
bin	57	0
bin	58	0
bin	59	0
bin	60	0
bin	61	0
bin	62	6
bin	63	1
bin	64	1
bin	65	1
bin	66	1
bin	67	1
bin	68	1
bin	69	1
bin	70	1
bin	71	2
bin	72	0
bin	73	0
bin	74	0
bin	75	0
bin	76	0
bin	77	6
bin	78	1
bin	79	1
bin	80	1
bin	81	1
bin	82	1
bin	83	1
bin	84	1
bin	85	1
bin	86	1
bin	87	1
bin	88	2
bin	89	0
bin	90	0
bin	91	0
bin	92	0
bin	93	0
bin	94	6
bin	95	1
bin	96	1
bin	97	1
bin	98	1
bin	99	1
bin	100	1
bin	101	2
bin	102	1
bin	103	1
bin	104	1
bin	105	1
bin	106	1
bin	107	1
bin	108	1
bin	109	1
bin	110	1
bin	111	1
bin	112	1
bin	113	1
bin	114	1
bin	115	1
bin	116	1
bin	117	1
bin	118	1
bin	119	1
bin	120	1
bin	121	1
bin	122	1
bin	123	1
bin	124	1
bin	125	1
bin	126	1
bin	127	2
bin	128	1
bin	129	1
bin	130	1
bin	131	1
bin	132	1
bin	133	2
bin	134	0
bin	135	0
bin	136	0
bin	137	0
bin	138	0
bin	139	0
bin	140	0
bin	141	2929
scalar SimphonyDHTNetwork.members[9] 	#packetsInTheNetwork 	2144
statistic SimphonyDHTNetwork.members[9] 	"packets statistics"
field count 2270
field mean 1072.1718061674
field stddev 620.07666573993
field sum 2433830
field sqrsum 3481903224
field min 0
field max 2143
attr type  int
bin	-INF	0
bin	-46	0
bin	-45	0
bin	-44	0
bin	-43	0
bin	-42	0
bin	-41	0
bin	-40	0
bin	-39	0
bin	-38	0
bin	-37	0
bin	-36	0
bin	-35	0
bin	-34	0
bin	-33	0
bin	-32	0
bin	-31	0
bin	-30	0
bin	-29	0
bin	-28	0
bin	-27	0
bin	-26	0
bin	-25	0
bin	-24	0
bin	-23	0
bin	-22	0
bin	-21	0
bin	-20	0
bin	-19	0
bin	-18	0
bin	-17	0
bin	-16	0
bin	-15	0
bin	-14	0
bin	-13	0
bin	-12	0
bin	-11	0
bin	-10	0
bin	-9	0
bin	-8	0
bin	-7	0
bin	-6	0
bin	-5	0
bin	-4	0
bin	-3	0
bin	-2	0
bin	-1	0
bin	0	1
bin	1	1
bin	2	1
bin	3	1
bin	4	1
bin	5	1
bin	6	1
bin	7	1
bin	8	1
bin	9	1
bin	10	1
bin	11	1
bin	12	1
bin	13	2
bin	14	2
bin	15	1
bin	16	1
bin	17	2
bin	18	1
bin	19	1
bin	20	1
bin	21	2
bin	22	0
bin	23	0
bin	24	0
bin	25	0
bin	26	0
bin	27	0
bin	28	7
bin	29	1
bin	30	1
bin	31	1
bin	32	1
bin	33	1
bin	34	1
bin	35	1
bin	36	1
bin	37	1
bin	38	1
bin	39	1
bin	40	1
bin	41	1
bin	42	1
bin	43	1
bin	44	2
bin	45	0
bin	46	0
bin	47	0
bin	48	0
bin	49	0
bin	50	0
bin	51	7
bin	52	1
bin	53	1
bin	54	1
bin	55	1
bin	56	1
bin	57	1
bin	58	1
bin	59	1
bin	60	1
bin	61	1
bin	62	1
bin	63	1
bin	64	1
bin	65	2
bin	66	0
bin	67	0
bin	68	0
bin	69	0
bin	70	0
bin	71	0
bin	72	7
bin	73	1
bin	74	1
bin	75	1
bin	76	1
bin	77	1
bin	78	1
bin	79	1
bin	80	1
bin	81	2
bin	82	0
bin	83	0
bin	84	0
bin	85	0
bin	86	0
bin	87	0
bin	88	7
bin	89	1
bin	90	1
bin	91	1
bin	92	1
bin	93	1
bin	94	1
bin	95	1
bin	96	0
bin	97	2
bin	98	0
bin	99	0
bin	100	0
bin	101	0
bin	102	0
bin	103	0
bin	104	7
bin	105	1
bin	106	2
bin	107	1
bin	108	1
bin	109	2
bin	110	1
bin	111	1
bin	112	1
bin	113	1
bin	114	2
bin	115	0
bin	116	0
bin	117	0
bin	118	0
bin	119	0
bin	120	0
bin	121	0
bin	122	8
bin	123	1
bin	124	1
bin	125	1
bin	126	1
bin	127	1
bin	128	1
bin	129	1
bin	130	2
bin	131	0
bin	132	0
bin	133	0
bin	134	0
bin	135	0
bin	136	0
bin	137	0
bin	138	2128
scalar SimphonyDHTNetwork.members[10] 	#packetsInTheNetwork 	2869
statistic SimphonyDHTNetwork.members[10] 	"packets statistics"
field count 3086
field mean 1436.8788075178
field stddev 829.69166885805
field sum 4434208
field sqrsum 8495097302
field min 0
field max 2868
attr type  int
bin	-INF	0
bin	-46	0
bin	-45	0
bin	-44	0
bin	-43	0
bin	-42	0
bin	-41	0
bin	-40	0
bin	-39	0
bin	-38	0
bin	-37	0
bin	-36	0
bin	-35	0
bin	-34	0
bin	-33	0
bin	-32	0
bin	-31	0
bin	-30	0
bin	-29	0
bin	-28	0
bin	-27	0
bin	-26	0
bin	-25	0
bin	-24	0
bin	-23	0
bin	-22	0
bin	-21	0
bin	-20	0
bin	-19	0
bin	-18	0
bin	-17	0
bin	-16	0
bin	-15	0
bin	-14	0
bin	-13	0
bin	-12	0
bin	-11	0
bin	-10	0
bin	-9	0
bin	-8	0
bin	-7	0
bin	-6	0
bin	-5	0
bin	-4	0
bin	-3	0
bin	-2	0
bin	-1	0
bin	0	1
bin	1	1
bin	2	1
bin	3	1
bin	4	1
bin	5	1
bin	6	1
bin	7	1
bin	8	1
bin	9	1
bin	10	1
bin	11	1
bin	12	1
bin	13	2
bin	14	1
bin	15	1
bin	16	1
bin	17	1
bin	18	1
bin	19	1
bin	20	2
bin	21	1
bin	22	2
bin	23	2
bin	24	1
bin	25	1
bin	26	1
bin	27	1
bin	28	1
bin	29	1
bin	30	1
bin	31	1
bin	32	1
bin	33	2
bin	34	0
bin	35	0
bin	36	0
bin	37	0
bin	38	0
bin	39	0
bin	40	0
bin	41	8
bin	42	1
bin	43	1
bin	44	1
bin	45	1
bin	46	1
bin	47	1
bin	48	1
bin	49	2
bin	50	0
bin	51	0
bin	52	0
bin	53	0
bin	54	0
bin	55	0
bin	56	0
bin	57	8
bin	58	1
bin	59	1
bin	60	1
bin	61	1
bin	62	1
bin	63	1
bin	64	1
bin	65	2
bin	66	0
bin	67	0
bin	68	0
bin	69	0
bin	70	0
bin	71	0
bin	72	0
bin	73	8
bin	74	1
bin	75	1
bin	76	1
bin	77	1
bin	78	1
bin	79	2
bin	80	2
bin	81	1
bin	82	1
bin	83	1
bin	84	2
bin	85	0
bin	86	0
bin	87	0
bin	88	0
bin	89	0
bin	90	0
bin	91	0
bin	92	8
bin	93	1
bin	94	1
bin	95	1
bin	96	1
bin	97	1
bin	98	2
bin	99	0
bin	100	0
bin	101	0
bin	102	0
bin	103	0
bin	104	0
bin	105	0
bin	106	8
bin	107	1
bin	108	1
bin	109	1
bin	110	1
bin	111	1
bin	112	1
bin	113	1
bin	114	1
bin	115	1
bin	116	2
bin	117	0
bin	118	0
bin	119	0
bin	120	0
bin	121	0
bin	122	0
bin	123	0
bin	124	8
bin	125	1
bin	126	1
bin	127	1
bin	128	1
bin	129	1
bin	130	1
bin	131	1
bin	132	1
bin	133	1
bin	134	1
bin	135	2
bin	136	0
bin	137	0
bin	138	2937
scalar SimphonyDHTNetwork.members[11] 	#packetsInTheNetwork 	2032
statistic SimphonyDHTNetwork.members[11] 	"packets statistics"
field count 2147
field mean 1019.2352119236
field stddev 590.76320793998
field sum 2188298
field sqrsum 2979346882
field min 0
field max 2031
attr type  int
bin	-INF	0
bin	-48	0
bin	-47	0
bin	-46	0
bin	-45	0
bin	-44	0
bin	-43	0
bin	-42	0
bin	-41	0
bin	-40	0
bin	-39	0
bin	-38	0
bin	-37	0
bin	-36	0
bin	-35	0
bin	-34	0
bin	-33	0
bin	-32	0
bin	-31	0
bin	-30	0
bin	-29	0
bin	-28	0
bin	-27	0
bin	-26	0
bin	-25	0
bin	-24	0
bin	-23	0
bin	-22	0
bin	-21	0
bin	-20	0
bin	-19	0
bin	-18	0
bin	-17	0
bin	-16	0
bin	-15	0
bin	-14	0
bin	-13	0
bin	-12	0
bin	-11	0
bin	-10	0
bin	-9	0
bin	-8	0
bin	-7	0
bin	-6	0
bin	-5	0
bin	-4	0
bin	-3	0
bin	-2	0
bin	-1	0
bin	0	1
bin	1	1
bin	2	1
bin	3	2
bin	4	1
bin	5	1
bin	6	1
bin	7	1
bin	8	1
bin	9	1
bin	10	1
bin	11	1
bin	12	1
bin	13	2
bin	14	1
bin	15	1
bin	16	2
bin	17	0
bin	18	0
bin	19	0
bin	20	0
bin	21	0
bin	22	0
bin	23	0
bin	24	8
bin	25	1
bin	26	1
bin	27	1
bin	28	1
bin	29	2
bin	30	0
bin	31	0
bin	32	0
bin	33	0
bin	34	0
bin	35	0
bin	36	0
bin	37	8
bin	38	1
bin	39	1
bin	40	1
bin	41	1
bin	42	1
bin	43	1
bin	44	1
bin	45	1
bin	46	1
bin	47	1
bin	48	2
bin	49	0
bin	50	0
bin	51	0
bin	52	0
bin	53	0
bin	54	0
bin	55	0
bin	56	8
bin	57	1
bin	58	1
bin	59	1
bin	60	1
bin	61	1
bin	62	1
bin	63	1
bin	64	2
bin	65	1
bin	66	1
bin	67	1
bin	68	2
bin	69	0
bin	70	0
bin	71	0
bin	72	0
bin	73	0
bin	74	0
bin	75	0
bin	76	8
bin	77	1
bin	78	1
bin	79	1
bin	80	1
bin	81	1
bin	82	1
bin	83	1
bin	84	1
bin	85	1
bin	86	1
bin	87	2
bin	88	0
bin	89	0
bin	90	0
bin	91	0
bin	92	0
bin	93	0
bin	94	0
bin	95	8
bin	96	1
bin	97	1
bin	98	1
bin	99	1
bin	100	1
bin	101	1
bin	102	2
bin	103	0
bin	104	0
bin	105	0
bin	106	0
bin	107	0
bin	108	0
bin	109	0
bin	110	8
bin	111	1
bin	112	1
bin	113	1
bin	114	1
bin	115	1
bin	116	2
bin	117	1
bin	118	2
bin	119	2
bin	120	1
bin	121	1
bin	122	1
bin	123	1
bin	124	1
bin	125	1
bin	126	1
bin	127	1
bin	128	1
bin	129	1
bin	130	1
bin	131	1
bin	132	1
bin	133	1
bin	134	1
bin	135	1
bin	136	1
bin	137	1
bin	138	1
bin	139	1
bin	140	1
bin	141	1
bin	142	1
bin	143	1992
scalar SimphonyDHTNetwork.members[12] 	#packetsInTheNetwork 	2775
statistic SimphonyDHTNetwork.members[12] 	"packets statistics"
field count 3015
field mean 1399.9538971808
field stddev 798.99725697455
field sum 4220861
field sqrsum 7833138209
field min 0
field max 2774
attr type  int
bin	-INF	0
bin	-46	0
bin	-45	0
bin	-44	0
bin	-43	0
bin	-42	0
bin	-41	0
bin	-40	0
bin	-39	0
bin	-38	0
bin	-37	0
bin	-36	0
bin	-35	0
bin	-34	0
bin	-33	0
bin	-32	0
bin	-31	0
bin	-30	0
bin	-29	0
bin	-28	0
bin	-27	0
bin	-26	0
bin	-25	0
bin	-24	0
bin	-23	0
bin	-22	0
bin	-21	0
bin	-20	0
bin	-19	0
bin	-18	0
bin	-17	0
bin	-16	0
bin	-15	0
bin	-14	0
bin	-13	0
bin	-12	0
bin	-11	0
bin	-10	0
bin	-9	0
bin	-8	0
bin	-7	0
bin	-6	0
bin	-5	0
bin	-4	0
bin	-3	0
bin	-2	0
bin	-1	0
bin	0	1
bin	1	1
bin	2	1
bin	3	2
bin	4	0
bin	5	0
bin	6	0
bin	7	0
bin	8	0
bin	9	0
bin	10	0
bin	11	8
bin	12	1
bin	13	1
bin	14	1
bin	15	1
bin	16	1
bin	17	1
bin	18	1
bin	19	1
bin	20	1
bin	21	1
bin	22	2
bin	23	0
bin	24	0
bin	25	0
bin	26	0
bin	27	0
bin	28	0
bin	29	0
bin	30	8
bin	31	1
bin	32	1
bin	33	1
bin	34	1
bin	35	1
bin	36	1
bin	37	1
bin	38	1
bin	39	1
bin	40	1
bin	41	1
bin	42	1
bin	43	2
bin	44	2
bin	45	1
bin	46	1
bin	47	1
bin	48	1
bin	49	2
bin	50	0
bin	51	0
bin	52	0
bin	53	0
bin	54	0
bin	55	0
bin	56	0
bin	57	8
bin	58	1
bin	59	1
bin	60	1
bin	61	1
bin	62	1
bin	63	1
bin	64	1
bin	65	2
bin	66	0
bin	67	0
bin	68	0
bin	69	0
bin	70	0
bin	71	0
bin	72	0
bin	73	8
bin	74	1
bin	75	1
bin	76	1
bin	77	1
bin	78	1
bin	79	1
bin	80	1
bin	81	1
bin	82	2
bin	83	0
bin	84	0
bin	85	0
bin	86	0
bin	87	0
bin	88	0
bin	89	0
bin	90	8
bin	91	1
bin	92	1
bin	93	1
bin	94	1
bin	95	2
bin	96	0
bin	97	0
bin	98	0
bin	99	0
bin	100	0
bin	101	0
bin	102	0
bin	103	8
bin	104	1
bin	105	1
bin	106	1
bin	107	1
bin	108	1
bin	109	1
bin	110	1
bin	111	2
bin	112	0
bin	113	0
bin	114	0
bin	115	0
bin	116	0
bin	117	0
bin	118	0
bin	119	8
bin	120	1
bin	121	1
bin	122	1
bin	123	1
bin	124	2
bin	125	0
bin	126	0
bin	127	0
bin	128	0
bin	129	0
bin	130	0
bin	131	0
bin	132	8
bin	133	1
bin	134	1
bin	135	1
bin	136	1
bin	137	1
bin	138	2867
scalar SimphonyDHTNetwork.members[13] 	#packetsInTheNetwork 	1336
statistic SimphonyDHTNetwork.members[13] 	"packets statistics"
field count 1446
field mean 666.19156293223
field stddev 384.71530294012
field sum 963313
field sqrsum 855619467
field min 0
field max 1335
attr type  int
bin	-INF	0
bin	-45	0
bin	-44	0
bin	-43	0
bin	-42	0
bin	-41	0
bin	-40	0
bin	-39	0
bin	-38	0
bin	-37	0
bin	-36	0
bin	-35	0
bin	-34	0
bin	-33	0
bin	-32	0
bin	-31	0
bin	-30	0
bin	-29	0
bin	-28	0
bin	-27	0
bin	-26	0
bin	-25	0
bin	-24	0
bin	-23	0
bin	-22	0
bin	-21	0
bin	-20	0
bin	-19	0
bin	-18	0
bin	-17	0
bin	-16	0
bin	-15	0
bin	-14	0
bin	-13	0
bin	-12	0
bin	-11	0
bin	-10	0
bin	-9	0
bin	-8	0
bin	-7	0
bin	-6	0
bin	-5	0
bin	-4	0
bin	-3	0
bin	-2	0
bin	-1	0
bin	0	1
bin	1	1
bin	2	1
bin	3	2
bin	4	0
bin	5	0
bin	6	0
bin	7	0
bin	8	0
bin	9	0
bin	10	0
bin	11	8
bin	12	1
bin	13	1
bin	14	1
bin	15	1
bin	16	1
bin	17	1
bin	18	1
bin	19	1
bin	20	1
bin	21	1
bin	22	1
bin	23	1
bin	24	1
bin	25	2
bin	26	0
bin	27	0
bin	28	0
bin	29	0
bin	30	0
bin	31	0
bin	32	0
bin	33	8
bin	34	1
bin	35	1
bin	36	1
bin	37	1
bin	38	1
bin	39	2
bin	40	1
bin	41	1
bin	42	1
bin	43	1
bin	44	1
bin	45	1
bin	46	1
bin	47	2
bin	48	1
bin	49	2
bin	50	2
bin	51	1
bin	52	2
bin	53	1
bin	54	1
bin	55	1
bin	56	1
bin	57	1
bin	58	1
bin	59	1
bin	60	1
bin	61	1
bin	62	2
bin	63	0
bin	64	0
bin	65	0
bin	66	0
bin	67	0
bin	68	0
bin	69	0
bin	70	8
bin	71	1
bin	72	1
bin	73	1
bin	74	1
bin	75	2
bin	76	0
bin	77	0
bin	78	0
bin	79	0
bin	80	0
bin	81	0
bin	82	0
bin	83	8
bin	84	1
bin	85	1
bin	86	1
bin	87	1
bin	88	1
bin	89	1
bin	90	1
bin	91	1
bin	92	1
bin	93	2
bin	94	0
bin	95	0
bin	96	0
bin	97	0
bin	98	0
bin	99	0
bin	100	0
bin	101	8
bin	102	1
bin	103	1
bin	104	1
bin	105	1
bin	106	1
bin	107	1
bin	108	1
bin	109	2
bin	110	0
bin	111	0
bin	112	0
bin	113	0
bin	114	0
bin	115	0
bin	116	0
bin	117	8
bin	118	1
bin	119	1
bin	120	1
bin	121	1
bin	122	1
bin	123	1
bin	124	1
bin	125	1
bin	126	1
bin	127	1
bin	128	1
bin	129	1
bin	130	1
bin	131	1
bin	132	1
bin	133	1
bin	134	1
bin	135	1300
scalar SimphonyDHTNetwork.members[14] 	#packetsInTheNetwork 	2341
statistic SimphonyDHTNetwork.members[14] 	"packets statistics"
field count 2530
field mean 1183.3166007905
field stddev 677.22742847475
field sum 2993791
field sqrsum 4702495537
field min 0
field max 2340
attr type  int
bin	-INF	0
bin	-49	0
bin	-48	0
bin	-47	0
bin	-46	0
bin	-45	0
bin	-44	0
bin	-43	0
bin	-42	0
bin	-41	0
bin	-40	0
bin	-39	0
bin	-38	0
bin	-37	0
bin	-36	0
bin	-35	0
bin	-34	0
bin	-33	0
bin	-32	0
bin	-31	0
bin	-30	0
bin	-29	0
bin	-28	0
bin	-27	0
bin	-26	0
bin	-25	0
bin	-24	0
bin	-23	0
bin	-22	0
bin	-21	0
bin	-20	0
bin	-19	0
bin	-18	0
bin	-17	0
bin	-16	0
bin	-15	0
bin	-14	0
bin	-13	0
bin	-12	0
bin	-11	0
bin	-10	0
bin	-9	0
bin	-8	0
bin	-7	0
bin	-6	0
bin	-5	0
bin	-4	0
bin	-3	0
bin	-2	0
bin	-1	0
bin	0	1
bin	1	1
bin	2	1
bin	3	2
bin	4	0
bin	5	0
bin	6	0
bin	7	0
bin	8	0
bin	9	0
bin	10	0
bin	11	8
bin	12	1
bin	13	1
bin	14	1
bin	15	1
bin	16	1
bin	17	2
bin	18	2
bin	19	1
bin	20	1
bin	21	2
bin	22	0
bin	23	0
bin	24	0
bin	25	0
bin	26	0
bin	27	0
bin	28	0
bin	29	8
bin	30	1
bin	31	1
bin	32	1
bin	33	1
bin	34	1
bin	35	1
bin	36	1
bin	37	1
bin	38	1
bin	39	2
bin	40	0
bin	41	0
bin	42	0
bin	43	0
bin	44	0
bin	45	0
bin	46	0
bin	47	8
bin	48	1
bin	49	1
bin	50	1
bin	51	1
bin	52	1
bin	53	1
bin	54	1
bin	55	1
bin	56	2
bin	57	0
bin	58	0
bin	59	0
bin	60	0
bin	61	0
bin	62	0
bin	63	0
bin	64	8
bin	65	1
bin	66	1
bin	67	1
bin	68	1
bin	69	1
bin	70	1
bin	71	1
bin	72	1
bin	73	1
bin	74	1
bin	75	1
bin	76	1
bin	77	1
bin	78	1
bin	79	1
bin	80	1
bin	81	1
bin	82	1
bin	83	1
bin	84	1
bin	85	1
bin	86	1
bin	87	1
bin	88	1
bin	89	2
bin	90	0
bin	91	0
bin	92	0
bin	93	0
bin	94	0
bin	95	0
bin	96	0
bin	97	8
bin	98	1
bin	99	1
bin	100	1
bin	101	1
bin	102	1
bin	103	1
bin	104	2
bin	105	1
bin	106	1
bin	107	1
bin	108	1
bin	109	1
bin	110	1
bin	111	1
bin	112	2
bin	113	1
bin	114	1
bin	115	1
bin	116	1
bin	117	1
bin	118	1
bin	119	1
bin	120	1
bin	121	1
bin	122	1
bin	123	1
bin	124	1
bin	125	1
bin	126	1
bin	127	1
bin	128	1
bin	129	1
bin	130	1
bin	131	1
bin	132	1
bin	133	1
bin	134	1
bin	135	1
bin	136	1
bin	137	1
bin	138	1
bin	139	1
bin	140	1
bin	141	1
bin	142	1
bin	143	1
bin	144	1
bin	145	1
bin	146	2375
scalar SimphonyDHTNetwork.members[15] 	#packetsInTheNetwork 	1782
statistic SimphonyDHTNetwork.members[15] 	"packets statistics"
field count 1947
field mean 897.10785824345
field stddev 512.0135710027
field sum 1746669
field sqrsum 2077109753
field min 0
field max 1781
attr type  int
bin	-INF	0
bin	-46	0
bin	-45	0
bin	-44	0
bin	-43	0
bin	-42	0
bin	-41	0
bin	-40	0
bin	-39	0
bin	-38	0
bin	-37	0
bin	-36	0
bin	-35	0
bin	-34	0
bin	-33	0
bin	-32	0
bin	-31	0
bin	-30	0
bin	-29	0
bin	-28	0
bin	-27	0
bin	-26	0
bin	-25	0
bin	-24	0
bin	-23	0
bin	-22	0
bin	-21	0
bin	-20	0
bin	-19	0
bin	-18	0
bin	-17	0
bin	-16	0
bin	-15	0
bin	-14	0
bin	-13	0
bin	-12	0
bin	-11	0
bin	-10	0
bin	-9	0
bin	-8	0
bin	-7	0
bin	-6	0
bin	-5	0
bin	-4	0
bin	-3	0
bin	-2	0
bin	-1	0
bin	0	1
bin	1	1
bin	2	2
bin	3	0
bin	4	0
bin	5	0
bin	6	0
bin	7	0
bin	8	0
bin	9	0
bin	10	8
bin	11	1
bin	12	1
bin	13	1
bin	14	1
bin	15	1
bin	16	2
bin	17	1
bin	18	2
bin	19	2
bin	20	1
bin	21	1
bin	22	1
bin	23	1
bin	24	1
bin	25	1
bin	26	1
bin	27	1
bin	28	2
bin	29	0
bin	30	0
bin	31	0
bin	32	0
bin	33	0
bin	34	0
bin	35	0
bin	36	8
bin	37	1
bin	38	1
bin	39	1
bin	40	1
bin	41	1
bin	42	1
bin	43	1
bin	44	1
bin	45	1
bin	46	1
bin	47	1
bin	48	1
bin	49	1
bin	50	1
bin	51	1
bin	52	1
bin	53	1
bin	54	1
bin	55	1
bin	56	1
bin	57	1
bin	58	2
bin	59	0
bin	60	0
bin	61	0
bin	62	0
bin	63	0
bin	64	0
bin	65	0
bin	66	8
bin	67	1
bin	68	1
bin	69	1
bin	70	1
bin	71	1
bin	72	1
bin	73	1
bin	74	1
bin	75	1
bin	76	1
bin	77	2
bin	78	0
bin	79	0
bin	80	0
bin	81	0
bin	82	0
bin	83	0
bin	84	0
bin	85	8
bin	86	1
bin	87	1
bin	88	1
bin	89	1
bin	90	1
bin	91	1
bin	92	1
bin	93	1
bin	94	1
bin	95	1
bin	96	1
bin	97	1
bin	98	1
bin	99	1
bin	100	1
bin	101	1
bin	102	1
bin	103	1
bin	104	1
bin	105	1
bin	106	1
bin	107	1
bin	108	1
bin	109	1
bin	110	1
bin	111	1
bin	112	1
bin	113	1
bin	114	1
bin	115	1
bin	116	1
bin	117	1
bin	118	1
bin	119	1
bin	120	1
bin	121	1
bin	122	1
bin	123	1
bin	124	1
bin	125	1
bin	126	1
bin	127	1
bin	128	1
bin	129	1
bin	130	2
bin	131	0
bin	132	0
bin	133	0
bin	134	0
bin	135	0
bin	136	0
bin	137	0
bin	138	1808
scalar SimphonyDHTNetwork.members[16] 	#packetsInTheNetwork 	1756
statistic SimphonyDHTNetwork.members[16] 	"packets statistics"
field count 1922
field mean 881.40998959417
field stddev 505.36156539589
field sum 1694070
field sqrsum 1983775010
field min 0
field max 1755
attr type  int
bin	-INF	0
bin	-48	0
bin	-47	0
bin	-46	0
bin	-45	0
bin	-44	0
bin	-43	0
bin	-42	0
bin	-41	0
bin	-40	0
bin	-39	0
bin	-38	0
bin	-37	0
bin	-36	0
bin	-35	0
bin	-34	0
bin	-33	0
bin	-32	0
bin	-31	0
bin	-30	0
bin	-29	0
bin	-28	0
bin	-27	0
bin	-26	0
bin	-25	0
bin	-24	0
bin	-23	0
bin	-22	0
bin	-21	0
bin	-20	0
bin	-19	0
bin	-18	0
bin	-17	0
bin	-16	0
bin	-15	0
bin	-14	0
bin	-13	0
bin	-12	0
bin	-11	0
bin	-10	0
bin	-9	0
bin	-8	0
bin	-7	0
bin	-6	0
bin	-5	0
bin	-4	0
bin	-3	0
bin	-2	0
bin	-1	0
bin	0	1
bin	1	1
bin	2	1
bin	3	1
bin	4	1
bin	5	2
bin	6	0
bin	7	0
bin	8	0
bin	9	0
bin	10	0
bin	11	0
bin	12	0
bin	13	8
bin	14	1
bin	15	1
bin	16	1
bin	17	1
bin	18	1
bin	19	1
bin	20	1
bin	21	1
bin	22	1
bin	23	1
bin	24	1
bin	25	1
bin	26	1
bin	27	1
bin	28	1
bin	29	1
bin	30	1
bin	31	1
bin	32	1
bin	33	1
bin	34	1
bin	35	1
bin	36	1
bin	37	1
bin	38	1
bin	39	2
bin	40	0
bin	41	0
bin	42	0
bin	43	0
bin	44	0
bin	45	0
bin	46	0
bin	47	8
bin	48	1
bin	49	1
bin	50	1
bin	51	1
bin	52	1
bin	53	2
bin	54	0
bin	55	0
bin	56	0
bin	57	0
bin	58	0
bin	59	0
bin	60	0
bin	61	8
bin	62	1
bin	63	1
bin	64	1
bin	65	1
bin	66	1
bin	67	1
bin	68	1
bin	69	2
bin	70	2
bin	71	1
bin	72	1
bin	73	2
bin	74	0
bin	75	0
bin	76	0
bin	77	0
bin	78	0
bin	79	0
bin	80	0
bin	81	8
bin	82	1
bin	83	1
bin	84	1
bin	85	1
bin	86	1
bin	87	2
bin	88	0
bin	89	0
bin	90	0
bin	91	0
bin	92	0
bin	93	0
bin	94	0
bin	95	8
bin	96	1
bin	97	1
bin	98	1
bin	99	1
bin	100	1
bin	101	1
bin	102	1
bin	103	1
bin	104	1
bin	105	1
bin	106	1
bin	107	1
bin	108	1
bin	109	2
bin	110	0
bin	111	0
bin	112	0
bin	113	0
bin	114	0
bin	115	0
bin	116	0
bin	117	8
bin	118	1
bin	119	1
bin	120	1
bin	121	1
bin	122	1
bin	123	2
bin	124	1
bin	125	1
bin	126	1
bin	127	1
bin	128	1
bin	129	1
bin	130	1
bin	131	1
bin	132	1
bin	133	1
bin	134	1
bin	135	1
bin	136	1
bin	137	1
bin	138	2
bin	139	0
bin	140	0
bin	141	0
bin	142	0
bin	143	1773
scalar SimphonyDHTNetwork.members[17] 	#packetsInTheNetwork 	3030
statistic SimphonyDHTNetwork.members[17] 	"packets statistics"
field count 3255
field mean 1508.1385560676
field stddev 871.88821306878
field sum 4908991
field sqrsum 9877093787
field min 0
field max 3029
attr type  int
bin	-INF	0
bin	-46	0
bin	-45	0
bin	-44	0
bin	-43	0
bin	-42	0
bin	-41	0
bin	-40	0
bin	-39	0
bin	-38	0
bin	-37	0
bin	-36	0
bin	-35	0
bin	-34	0
bin	-33	0
bin	-32	0
bin	-31	0
bin	-30	0
bin	-29	0
bin	-28	0
bin	-27	0
bin	-26	0
bin	-25	0
bin	-24	0
bin	-23	0
bin	-22	0
bin	-21	0
bin	-20	0
bin	-19	0
bin	-18	0
bin	-17	0
bin	-16	0
bin	-15	0
bin	-14	0
bin	-13	0
bin	-12	0
bin	-11	0
bin	-10	0
bin	-9	0
bin	-8	0
bin	-7	0
bin	-6	0
bin	-5	0
bin	-4	0
bin	-3	0
bin	-2	0
bin	-1	0
bin	0	1
bin	1	1
bin	2	1
bin	3	1
bin	4	2
bin	5	0
bin	6	0
bin	7	0
bin	8	0
bin	9	0
bin	10	0
bin	11	0
bin	12	8
bin	13	1
bin	14	1
bin	15	1
bin	16	1
bin	17	1
bin	18	1
bin	19	1
bin	20	1
bin	21	2
bin	22	0
bin	23	0
bin	24	0
bin	25	0
bin	26	0
bin	27	0
bin	28	0
bin	29	8
bin	30	1
bin	31	1
bin	32	1
bin	33	1
bin	34	1
bin	35	1
bin	36	1
bin	37	1
bin	38	1
bin	39	1
bin	40	1
bin	41	1
bin	42	1
bin	43	1
bin	44	1
bin	45	1
bin	46	1
bin	47	1
bin	48	1
bin	49	1
bin	50	2
bin	51	0
bin	52	0
bin	53	0
bin	54	0
bin	55	0
bin	56	0
bin	57	0
bin	58	8
bin	59	1
bin	60	1
bin	61	1
bin	62	1
bin	63	1
bin	64	1
bin	65	2
bin	66	1
bin	67	2
bin	68	2
bin	69	1
bin	70	1
bin	71	1
bin	72	1
bin	73	1
bin	74	1
bin	75	1
bin	76	1
bin	77	1
bin	78	1
bin	79	1
bin	80	2
bin	81	0
bin	82	0
bin	83	0
bin	84	0
bin	85	0
bin	86	0
bin	87	0
bin	88	8
bin	89	1
bin	90	1
bin	91	0
bin	92	2
bin	93	0
bin	94	0
bin	95	0
bin	96	0
bin	97	0
bin	98	0
bin	99	0
bin	100	8
bin	101	1
bin	102	2
bin	103	1
bin	104	1
bin	105	1
bin	106	1
bin	107	1
bin	108	1
bin	109	2
bin	110	0
bin	111	0
bin	112	0
bin	113	0
bin	114	0
bin	115	0
bin	116	0
bin	117	8
bin	118	1
bin	119	1
bin	120	1
bin	121	1
bin	122	2
bin	123	0
bin	124	0
bin	125	0
bin	126	0
bin	127	0
bin	128	0
bin	129	0
bin	130	8
bin	131	1
bin	132	1
bin	133	1
bin	134	1
bin	135	2
bin	136	0
bin	137	0
bin	138	3108
scalar SimphonyDHTNetwork.members[18] 	#packetsInTheNetwork 	1568
statistic SimphonyDHTNetwork.members[18] 	"packets statistics"
field count 1695
field mean 791.89144542773
field stddev 452.28244982433
field sum 1342256
field sqrsum 1409444692
field min 0
field max 1567
attr type  int
bin	-INF	0
bin	-47	0
bin	-46	0
bin	-45	0
bin	-44	0
bin	-43	0
bin	-42	0
bin	-41	0
bin	-40	0
bin	-39	0
bin	-38	0
bin	-37	0
bin	-36	0
bin	-35	0
bin	-34	0
bin	-33	0
bin	-32	0
bin	-31	0
bin	-30	0
bin	-29	0
bin	-28	0
bin	-27	0
bin	-26	0
bin	-25	0
bin	-24	0
bin	-23	0
bin	-22	0
bin	-21	0
bin	-20	0
bin	-19	0
bin	-18	0
bin	-17	0
bin	-16	0
bin	-15	0
bin	-14	0
bin	-13	0
bin	-12	0
bin	-11	0
bin	-10	0
bin	-9	0
bin	-8	0
bin	-7	0
bin	-6	0
bin	-5	0
bin	-4	0
bin	-3	0
bin	-2	0
bin	-1	0
bin	0	1
bin	1	1
bin	2	1
bin	3	2
bin	4	0
bin	5	0
bin	6	0
bin	7	0
bin	8	0
bin	9	0
bin	10	0
bin	11	8
bin	12	1
bin	13	1
bin	14	1
bin	15	1
bin	16	2
bin	17	0
bin	18	0
bin	19	0
bin	20	0
bin	21	0
bin	22	0
bin	23	0
bin	24	8
bin	25	1
bin	26	1
bin	27	1
bin	28	1
bin	29	1
bin	30	1
bin	31	1
bin	32	1
bin	33	1
bin	34	1
bin	35	1
bin	36	1
bin	37	1
bin	38	1
bin	39	1
bin	40	1
bin	41	1
bin	42	1
bin	43	1
bin	44	1
bin	45	1
bin	46	2
bin	47	0
bin	48	0
bin	49	0
bin	50	0
bin	51	0
bin	52	0
bin	53	0
bin	54	8
bin	55	1
bin	56	1
bin	57	1
bin	58	1
bin	59	1
bin	60	1
bin	61	2
bin	62	0
bin	63	0
bin	64	0
bin	65	0
bin	66	0
bin	67	0
bin	68	0
bin	69	8
bin	70	1
bin	71	1
bin	72	1
bin	73	1
bin	74	1
bin	75	1
bin	76	1
bin	77	1
bin	78	1
bin	79	1
bin	80	2
bin	81	0
bin	82	0
bin	83	0
bin	84	0
bin	85	0
bin	86	0
bin	87	0
bin	88	8
bin	89	1
bin	90	1
bin	91	1
bin	92	1
bin	93	1
bin	94	1
bin	95	1
bin	96	1
bin	97	1
bin	98	1
bin	99	1
bin	100	1
bin	101	1
bin	102	1
bin	103	1
bin	104	1
bin	105	1
bin	106	1
bin	107	1
bin	108	1
bin	109	1
bin	110	1
bin	111	1
bin	112	1
bin	113	1
bin	114	1
bin	115	1
bin	116	1
bin	117	1
bin	118	1
bin	119	1
bin	120	1
bin	121	1
bin	122	1
bin	123	1
bin	124	2
bin	125	0
bin	126	0
bin	127	0
bin	128	0
bin	129	0
bin	130	0
bin	131	0
bin	132	8
bin	133	1
bin	134	1
bin	135	1
bin	136	1
bin	137	1
bin	138	1
bin	139	1
bin	140	1
bin	141	1548
scalar SimphonyDHTNetwork.members[19] 	#packetsInTheNetwork 	1743
statistic SimphonyDHTNetwork.members[19] 	"packets statistics"
field count 1871
field mean 875.63869588455
field stddev 504.15211595365
field sum 1638320
field sqrsum 1909873084
field min 0
field max 1743
attr type  int
bin	-INF	0
bin	-47	0
bin	-46	0
bin	-45	0
bin	-44	0
bin	-43	0
bin	-42	0
bin	-41	0
bin	-40	0
bin	-39	0
bin	-38	0
bin	-37	0
bin	-36	0
bin	-35	0
bin	-34	0
bin	-33	0
bin	-32	0
bin	-31	0
bin	-30	0
bin	-29	0
bin	-28	0
bin	-27	0
bin	-26	0
bin	-25	0
bin	-24	0
bin	-23	0
bin	-22	0
bin	-21	0
bin	-20	0
bin	-19	0
bin	-18	0
bin	-17	0
bin	-16	0
bin	-15	0
bin	-14	0
bin	-13	0
bin	-12	0
bin	-11	0
bin	-10	0
bin	-9	0
bin	-8	0
bin	-7	0
bin	-6	0
bin	-5	0
bin	-4	0
bin	-3	0
bin	-2	0
bin	-1	0
bin	0	1
bin	1	1
bin	2	1
bin	3	2
bin	4	0
bin	5	0
bin	6	0
bin	7	0
bin	8	0
bin	9	0
bin	10	0
bin	11	8
bin	12	1
bin	13	1
bin	14	1
bin	15	1
bin	16	1
bin	17	1
bin	18	1
bin	19	1
bin	20	1
bin	21	2
bin	22	1
bin	23	1
bin	24	1
bin	25	1
bin	26	1
bin	27	1
bin	28	1
bin	29	1
bin	30	2
bin	31	1
bin	32	1
bin	33	1
bin	34	1
bin	35	1
bin	36	1
bin	37	1
bin	38	1
bin	39	1
bin	40	1
bin	41	1
bin	42	2
bin	43	0
bin	44	0
bin	45	0
bin	46	0
bin	47	0
bin	48	0
bin	49	0
bin	50	8
bin	51	1
bin	52	1
bin	53	1
bin	54	1
bin	55	1
bin	56	1
bin	57	1
bin	58	1
bin	59	2
bin	60	0
bin	61	0
bin	62	0
bin	63	0
bin	64	0
bin	65	0
bin	66	0
bin	67	8
bin	68	1
bin	69	1
bin	70	1
bin	71	1
bin	72	1
bin	73	2
bin	74	1
bin	75	1
bin	76	1
bin	77	1
bin	78	1
bin	79	1
bin	80	1
bin	81	1
bin	82	1
bin	83	1
bin	84	1
bin	85	1
bin	86	2
bin	87	0
bin	88	0
bin	89	0
bin	90	0
bin	91	0
bin	92	0
bin	93	0
bin	94	8
bin	95	1
bin	96	1
bin	97	1
bin	98	1
bin	99	2
bin	100	0
bin	101	0
bin	102	0
bin	103	0
bin	104	0
bin	105	0
bin	106	0
bin	107	8
bin	108	1
bin	109	1
bin	110	1
bin	111	1
bin	112	1
bin	113	1
bin	114	1
bin	115	1
bin	116	1
bin	117	1
bin	118	1
bin	119	1
bin	120	1
bin	121	1
bin	122	1
bin	123	1
bin	124	1
bin	125	1
bin	126	1
bin	127	1
bin	128	1
bin	129	1
bin	130	1
bin	131	1
bin	132	1
bin	133	1
bin	134	1
bin	135	1
bin	136	1
bin	137	1
bin	138	1
bin	139	1
bin	140	1
bin	141	1722
scalar SimphonyDHTNetwork.members[20] 	#packetsInTheNetwork 	1472
statistic SimphonyDHTNetwork.members[20] 	"packets statistics"
field count 1583
field mean 738.75805432723
field stddev 424.52830545589
field sum 1169454
field sqrsum 1149058376
field min 0
field max 1471
attr type  int
bin	-INF	0
bin	-48	0
bin	-47	0
bin	-46	0
bin	-45	0
bin	-44	0
bin	-43	0
bin	-42	0
bin	-41	0
bin	-40	0
bin	-39	0
bin	-38	0
bin	-37	0
bin	-36	0
bin	-35	0
bin	-34	0
bin	-33	0
bin	-32	0
bin	-31	0
bin	-30	0
bin	-29	0
bin	-28	0
bin	-27	0
bin	-26	0
bin	-25	0
bin	-24	0
bin	-23	0
bin	-22	0
bin	-21	0
bin	-20	0
bin	-19	0
bin	-18	0
bin	-17	0
bin	-16	0
bin	-15	0
bin	-14	0
bin	-13	0
bin	-12	0
bin	-11	0
bin	-10	0
bin	-9	0
bin	-8	0
bin	-7	0
bin	-6	0
bin	-5	0
bin	-4	0
bin	-3	0
bin	-2	0
bin	-1	0
bin	0	1
bin	1	1
bin	2	1
bin	3	2
bin	4	0
bin	5	0
bin	6	0
bin	7	0
bin	8	0
bin	9	0
bin	10	0
bin	11	8
bin	12	1
bin	13	1
bin	14	1
bin	15	1
bin	16	1
bin	17	2
bin	18	1
bin	19	1
bin	20	1
bin	21	1
bin	22	1
bin	23	1
bin	24	1
bin	25	1
bin	26	1
bin	27	1
bin	28	1
bin	29	1
bin	30	1
bin	31	1
bin	32	1
bin	33	1
bin	34	1
bin	35	1
bin	36	1
bin	37	1
bin	38	2
bin	39	0
bin	40	0
bin	41	0
bin	42	0
bin	43	0
bin	44	0
bin	45	0
bin	46	8
bin	47	1
bin	48	1
bin	49	1
bin	50	1
bin	51	1
bin	52	1
bin	53	1
bin	54	1
bin	55	1
bin	56	1
bin	57	1
bin	58	1
bin	59	1
bin	60	1
bin	61	2
bin	62	0
bin	63	0
bin	64	0
bin	65	0
bin	66	0
bin	67	0
bin	68	0
bin	69	8
bin	70	1
bin	71	1
bin	72	1
bin	73	1
bin	74	2
bin	75	0
bin	76	0
bin	77	0
bin	78	0
bin	79	0
bin	80	0
bin	81	0
bin	82	8
bin	83	1
bin	84	1
bin	85	1
bin	86	1
bin	87	1
bin	88	2
bin	89	0
bin	90	0
bin	91	0
bin	92	0
bin	93	0
bin	94	0
bin	95	0
bin	96	8
bin	97	1
bin	98	1
bin	99	1
bin	100	1
bin	101	1
bin	102	2
bin	103	0
bin	104	0
bin	105	0
bin	106	0
bin	107	0
bin	108	0
bin	109	0
bin	110	8
bin	111	1
bin	112	1
bin	113	1
bin	114	1
bin	115	2
bin	116	0
bin	117	0
bin	118	0
bin	119	0
bin	120	0
bin	121	0
bin	122	0
bin	123	8
bin	124	1
bin	125	1
bin	126	1
bin	127	1
bin	128	2
bin	129	0
bin	130	0
bin	131	0
bin	132	0
bin	133	0
bin	134	0
bin	135	0
bin	136	8
bin	137	1
bin	138	1
bin	139	1
bin	140	1
bin	141	1
bin	142	1
bin	143	1
bin	144	1430
scalar SimphonyDHTNetwork.members[21] 	#packetsInTheNetwork 	1156
statistic SimphonyDHTNetwork.members[21] 	"packets statistics"
field count 1241
field mean 578.80419016922
field stddev 332.87210735265
field sum 718296
field sqrsum 553149496
field min 0
field max 1155
attr type  int
bin	-INF	0
bin	-47	0
bin	-46	0
bin	-45	0
bin	-44	0
bin	-43	0
bin	-42	0
bin	-41	0
bin	-40	0
bin	-39	0
bin	-38	0
bin	-37	0
bin	-36	0
bin	-35	0
bin	-34	0
bin	-33	0
bin	-32	0
bin	-31	0
bin	-30	0
bin	-29	0
bin	-28	0
bin	-27	0
bin	-26	0
bin	-25	0
bin	-24	0
bin	-23	0
bin	-22	0
bin	-21	0
bin	-20	0
bin	-19	0
bin	-18	0
bin	-17	0
bin	-16	0
bin	-15	0
bin	-14	0
bin	-13	0
bin	-12	0
bin	-11	0
bin	-10	0
bin	-9	0
bin	-8	0
bin	-7	0
bin	-6	0
bin	-5	0
bin	-4	0
bin	-3	0
bin	-2	0
bin	-1	0
bin	0	1
bin	1	1
bin	2	1
bin	3	1
bin	4	1
bin	5	1
bin	6	1
bin	7	2
bin	8	0
bin	9	0
bin	10	0
bin	11	0
bin	12	0
bin	13	0
bin	14	0
bin	15	8
bin	16	1
bin	17	1
bin	18	1
bin	19	1
bin	20	1
bin	21	2
bin	22	0
bin	23	0
bin	24	0
bin	25	0
bin	26	0
bin	27	0
bin	28	0
bin	29	8
bin	30	1
bin	31	1
bin	32	1
bin	33	1
bin	34	2
bin	35	0
bin	36	0
bin	37	0
bin	38	0
bin	39	0
bin	40	0
bin	41	0
bin	42	8
bin	43	1
bin	44	1
bin	45	1
bin	46	2
bin	47	0
bin	48	0
bin	49	0
bin	50	0
bin	51	0
bin	52	0
bin	53	0
bin	54	8
bin	55	1
bin	56	1
bin	57	1
bin	58	1
bin	59	1
bin	60	1
bin	61	1
bin	62	1
bin	63	1
bin	64	1
bin	65	1
bin	66	1
bin	67	1
bin	68	1
bin	69	1
bin	70	2
bin	71	0
bin	72	0
bin	73	0
bin	74	0
bin	75	0
bin	76	0
bin	77	0
bin	78	8
bin	79	1
bin	80	1
bin	81	1
bin	82	1
bin	83	1
bin	84	1
bin	85	1
bin	86	1
bin	87	1
bin	88	1
bin	89	1
bin	90	1
bin	91	1
bin	92	1
bin	93	1
bin	94	1
bin	95	1
bin	96	1
bin	97	1
bin	98	1
bin	99	1
bin	100	1
bin	101	1
bin	102	1
bin	103	1
bin	104	1
bin	105	1
bin	106	1
bin	107	2
bin	108	0
bin	109	0
bin	110	0
bin	111	0
bin	112	0
bin	113	0
bin	114	0
bin	115	8
bin	116	1
bin	117	1
bin	118	1
bin	119	1
bin	120	1
bin	121	2
bin	122	0
bin	123	0
bin	124	0
bin	125	0
bin	126	0
bin	127	0
bin	128	0
bin	129	8
bin	130	1
bin	131	1
bin	132	1
bin	133	1
bin	134	1
bin	135	1
bin	136	1
bin	137	1
bin	138	1
bin	139	1
bin	140	1
bin	141	1093
scalar SimphonyDHTNetwork.members[22] 	#packetsInTheNetwork 	1703
statistic SimphonyDHTNetwork.members[22] 	"packets statistics"
field count 1845
field mean 856.14471544715
field stddev 489.23031782934
field sum 1579587
field sqrsum 1793709647
field min 0
field max 1702
attr type  int
bin	-INF	0
bin	-48	0
bin	-47	0
bin	-46	0
bin	-45	0
bin	-44	0
bin	-43	0
bin	-42	0
bin	-41	0
bin	-40	0
bin	-39	0
bin	-38	0
bin	-37	0
bin	-36	0
bin	-35	0
bin	-34	0
bin	-33	0
bin	-32	0
bin	-31	0
bin	-30	0
bin	-29	0
bin	-28	0
bin	-27	0
bin	-26	0
bin	-25	0
bin	-24	0
bin	-23	0
bin	-22	0
bin	-21	0
bin	-20	0
bin	-19	0
bin	-18	0
bin	-17	0
bin	-16	0
bin	-15	0
bin	-14	0
bin	-13	0
bin	-12	0
bin	-11	0
bin	-10	0
bin	-9	0
bin	-8	0
bin	-7	0
bin	-6	0
bin	-5	0
bin	-4	0
bin	-3	0
bin	-2	0
bin	-1	0
bin	0	1
bin	1	1
bin	2	1
bin	3	1
bin	4	1
bin	5	1
bin	6	1
bin	7	1
bin	8	2
bin	9	0
bin	10	0
bin	11	0
bin	12	0
bin	13	0
bin	14	0
bin	15	0
bin	16	8
bin	17	1
bin	18	1
bin	19	1
bin	20	1
bin	21	1
bin	22	1
bin	23	1
bin	24	1
bin	25	1
bin	26	1
bin	27	1
bin	28	1
bin	29	1
bin	30	1
bin	31	1
bin	32	2
bin	33	0
bin	34	0
bin	35	0
bin	36	0
bin	37	0
bin	38	0
bin	39	0
bin	40	8
bin	41	1
bin	42	1
bin	43	1
bin	44	1
bin	45	1
bin	46	1
bin	47	1
bin	48	1
bin	49	1
bin	50	1
bin	51	1
bin	52	1
bin	53	1
bin	54	1
bin	55	2
bin	56	0
bin	57	0
bin	58	0
bin	59	0
bin	60	0
bin	61	0
bin	62	0
bin	63	8
bin	64	1
bin	65	1
bin	66	1
bin	67	1
bin	68	1
bin	69	2
bin	70	2
bin	71	1
bin	72	1
bin	73	2
bin	74	0
bin	75	0
bin	76	0
bin	77	0
bin	78	0
bin	79	0
bin	80	0
bin	81	8
bin	82	1
bin	83	1
bin	84	1
bin	85	1
bin	86	1
bin	87	2
bin	88	0
bin	89	0
bin	90	0
bin	91	0
bin	92	0
bin	93	0
bin	94	0
bin	95	8
bin	96	1
bin	97	1
bin	98	1
bin	99	1
bin	100	1
bin	101	1
bin	102	1
bin	103	1
bin	104	1
bin	105	1
bin	106	1
bin	107	1
bin	108	2
bin	109	1
bin	110	1
bin	111	2
bin	112	0
bin	113	0
bin	114	0
bin	115	0
bin	116	0
bin	117	0
bin	118	0
bin	119	8
bin	120	1
bin	121	1
bin	122	1
bin	123	2
bin	124	0
bin	125	0
bin	126	0
bin	127	0
bin	128	0
bin	129	0
bin	130	0
bin	131	8
bin	132	1
bin	133	1
bin	134	1
bin	135	1
bin	136	1
bin	137	1
bin	138	2
bin	139	0
bin	140	0
bin	141	0
bin	142	0
bin	143	1695
scalar SimphonyDHTNetwork.members[23] 	#packetsInTheNetwork 	1191
statistic SimphonyDHTNetwork.members[23] 	"packets statistics"
field count 1295
field mean 599.14208494208
field stddev 342.96874630206
field sum 775889
field sqrsum 617077817
field min 0
field max 1190
attr type  int
bin	-INF	0
bin	-47	0
bin	-46	0
bin	-45	0
bin	-44	0
bin	-43	0
bin	-42	0
bin	-41	0
bin	-40	0
bin	-39	0
bin	-38	0
bin	-37	0
bin	-36	0
bin	-35	0
bin	-34	0
bin	-33	0
bin	-32	0
bin	-31	0
bin	-30	0
bin	-29	0
bin	-28	0
bin	-27	0
bin	-26	0
bin	-25	0
bin	-24	0
bin	-23	0
bin	-22	0
bin	-21	0
bin	-20	0
bin	-19	0
bin	-18	0
bin	-17	0
bin	-16	0
bin	-15	0
bin	-14	0
bin	-13	0
bin	-12	0
bin	-11	0
bin	-10	0
bin	-9	0
bin	-8	0
bin	-7	0
bin	-6	0
bin	-5	0
bin	-4	0
bin	-3	0
bin	-2	0
bin	-1	0
bin	0	1
bin	1	1
bin	2	1
bin	3	1
bin	4	1
bin	5	1
bin	6	1
bin	7	2
bin	8	0
bin	9	0
bin	10	0
bin	11	0
bin	12	0
bin	13	0
bin	14	0
bin	15	8
bin	16	1
bin	17	1
bin	18	1
bin	19	1
bin	20	1
bin	21	1
bin	22	1
bin	23	1
bin	24	1
bin	25	1
bin	26	1
bin	27	1
bin	28	1
bin	29	1
bin	30	1
bin	31	2
bin	32	2
bin	33	1
bin	34	1
bin	35	2
bin	36	0
bin	37	0
bin	38	0
bin	39	0
bin	40	0
bin	41	0
bin	42	0
bin	43	8
bin	44	1
bin	45	1
bin	46	1
bin	47	1
bin	48	1
bin	49	2
bin	50	0
bin	51	0
bin	52	0
bin	53	0
bin	54	0
bin	55	0
bin	56	0
bin	57	8
bin	58	1
bin	59	1
bin	60	1
bin	61	1
bin	62	1
bin	63	2
bin	64	0
bin	65	0
bin	66	0
bin	67	0
bin	68	0
bin	69	0
bin	70	0
bin	71	8
bin	72	1
bin	73	1
bin	74	1
bin	75	1
bin	76	1
bin	77	2
bin	78	1
bin	79	2
bin	80	2
bin	81	1
bin	82	1
bin	83	1
bin	84	1
bin	85	2
bin	86	0
bin	87	0
bin	88	0
bin	89	0
bin	90	0
bin	91	0
bin	92	0
bin	93	8
bin	94	1
bin	95	1
bin	96	1
bin	97	1
bin	98	1
bin	99	1
bin	100	1
bin	101	1
bin	102	1
bin	103	1
bin	104	1
bin	105	1
bin	106	1
bin	107	2
bin	108	0
bin	109	0
bin	110	0
bin	111	0
bin	112	0
bin	113	0
bin	114	0
bin	115	8
bin	116	1
bin	117	1
bin	118	1
bin	119	1
bin	120	1
bin	121	1
bin	122	1
bin	123	1
bin	124	1
bin	125	1
bin	126	1
bin	127	1
bin	128	1
bin	129	1
bin	130	1
bin	131	1
bin	132	1
bin	133	1
bin	134	1
bin	135	1
bin	136	1
bin	137	1
bin	138	1
bin	139	1
bin	140	1144
scalar SimphonyDHTNetwork.members[24] 	#packetsInTheNetwork 	1852
statistic SimphonyDHTNetwork.members[24] 	"packets statistics"
field count 1998
field mean 933.0035035035
field stddev 533.60178484045
field sum 1864141
field sqrsum 2307857621
field min 0
field max 1851
attr type  int
bin	-INF	0
bin	-47	0
bin	-46	0
bin	-45	0
bin	-44	0
bin	-43	0
bin	-42	0
bin	-41	0
bin	-40	0
bin	-39	0
bin	-38	0
bin	-37	0
bin	-36	0
bin	-35	0
bin	-34	0
bin	-33	0
bin	-32	0
bin	-31	0
bin	-30	0
bin	-29	0
bin	-28	0
bin	-27	0
bin	-26	0
bin	-25	0
bin	-24	0
bin	-23	0
bin	-22	0
bin	-21	0
bin	-20	0
bin	-19	0
bin	-18	0
bin	-17	0
bin	-16	0
bin	-15	0
bin	-14	0
bin	-13	0
bin	-12	0
bin	-11	0
bin	-10	0
bin	-9	0
bin	-8	0
bin	-7	0
bin	-6	0
bin	-5	0
bin	-4	0
bin	-3	0
bin	-2	0
bin	-1	0
bin	0	1
bin	1	1
bin	2	1
bin	3	1
bin	4	1
bin	5	1
bin	6	1
bin	7	1
bin	8	1
bin	9	1
bin	10	1
bin	11	1
bin	12	1
bin	13	1
bin	14	1
bin	15	1
bin	16	1
bin	17	1
bin	18	2
bin	19	1
bin	20	2
bin	21	2
bin	22	1
bin	23	1
bin	24	1
bin	25	1
bin	26	1
bin	27	2
bin	28	0
bin	29	0
bin	30	0
bin	31	0
bin	32	0
bin	33	0
bin	34	0
bin	35	8
bin	36	1
bin	37	1
bin	38	1
bin	39	1
bin	40	1
bin	41	1
bin	42	1
bin	43	1
bin	44	1
bin	45	1
bin	46	1
bin	47	1
bin	48	1
bin	49	1
bin	50	1
bin	51	2
bin	52	0
bin	53	0
bin	54	0
bin	55	0
bin	56	0
bin	57	0
bin	58	0
bin	59	8
bin	60	1
bin	61	1
bin	62	1
bin	63	1
bin	64	1
bin	65	1
bin	66	1
bin	67	2
bin	68	0
bin	69	0
bin	70	0
bin	71	0
bin	72	0
bin	73	0
bin	74	0
bin	75	8
bin	76	1
bin	77	1
bin	78	1
bin	79	1
bin	80	1
bin	81	1
bin	82	1
bin	83	1
bin	84	1
bin	85	1
bin	86	1
bin	87	1
bin	88	1
bin	89	1
bin	90	1
bin	91	1
bin	92	1
bin	93	1
bin	94	2
bin	95	0
bin	96	0
bin	97	0
bin	98	0
bin	99	0
bin	100	0
bin	101	0
bin	102	8
bin	103	1
bin	104	1
bin	105	1
bin	106	1
bin	107	1
bin	108	1
bin	109	1
bin	110	1
bin	111	1
bin	112	1
bin	113	1
bin	114	1
bin	115	1
bin	116	1
bin	117	1
bin	118	1
bin	119	1
bin	120	1
bin	121	1
bin	122	1
bin	123	2
bin	124	1
bin	125	1
bin	126	2
bin	127	0
bin	128	0
bin	129	0
bin	130	0
bin	131	0
bin	132	0
bin	133	0
bin	134	8
bin	135	1
bin	136	1
bin	137	1
bin	138	1
bin	139	1
bin	140	1849
scalar SimphonyDHTNetwork.members[25] 	#packetsInTheNetwork 	2305
statistic SimphonyDHTNetwork.members[25] 	"packets statistics"
field count 2468
field mean 1153.8861426256
field stddev 665.30202125931
field sum 2847791
field sqrsum 4377986837
field min 0
field max 2304
attr type  int
bin	-INF	0
bin	-47	0
bin	-46	0
bin	-45	0
bin	-44	0
bin	-43	0
bin	-42	0
bin	-41	0
bin	-40	0
bin	-39	0
bin	-38	0
bin	-37	0
bin	-36	0
bin	-35	0
bin	-34	0
bin	-33	0
bin	-32	0
bin	-31	0
bin	-30	0
bin	-29	0
bin	-28	0
bin	-27	0
bin	-26	0
bin	-25	0
bin	-24	0
bin	-23	0
bin	-22	0
bin	-21	0
bin	-20	0
bin	-19	0
bin	-18	0
bin	-17	0
bin	-16	0
bin	-15	0
bin	-14	0
bin	-13	0
bin	-12	0
bin	-11	0
bin	-10	0
bin	-9	0
bin	-8	0
bin	-7	0
bin	-6	0
bin	-5	0
bin	-4	0
bin	-3	0
bin	-2	0
bin	-1	0
bin	0	1
bin	1	1
bin	2	1
bin	3	1
bin	4	1
bin	5	2
bin	6	0
bin	7	0
bin	8	0
bin	9	0
bin	10	0
bin	11	0
bin	12	0
bin	13	8
bin	14	1
bin	15	1
bin	16	1
bin	17	1
bin	18	1
bin	19	1
bin	20	0
bin	21	2
bin	22	0
bin	23	0
bin	24	0
bin	25	0
bin	26	0
bin	27	0
bin	28	0
bin	29	8
bin	30	1
bin	31	2
bin	32	1
bin	33	1
bin	34	1
bin	35	2
bin	36	0
bin	37	0
bin	38	0
bin	39	0
bin	40	0
bin	41	0
bin	42	0
bin	43	8
bin	44	1
bin	45	1
bin	46	1
bin	47	1
bin	48	1
bin	49	2
bin	50	0
bin	51	0
bin	52	0
bin	53	0
bin	54	0
bin	55	0
bin	56	0
bin	57	8
bin	58	1
bin	59	1
bin	60	1
bin	61	1
bin	62	1
bin	63	1
bin	64	1
bin	65	1
bin	66	1
bin	67	1
bin	68	1
bin	69	1
bin	70	1
bin	71	1
bin	72	1
bin	73	1
bin	74	1
bin	75	1
bin	76	1
bin	77	2
bin	78	0
bin	79	0
bin	80	0
bin	81	0
bin	82	0
bin	83	0
bin	84	0
bin	85	8
bin	86	1
bin	87	1
bin	88	1
bin	89	1
bin	90	1
bin	91	1
bin	92	1
bin	93	1
bin	94	1
bin	95	1
bin	96	2
bin	97	2
bin	98	1
bin	99	1
bin	100	2
bin	101	0
bin	102	0
bin	103	0
bin	104	0
bin	105	0
bin	106	0
bin	107	0
bin	108	8
bin	109	1
bin	110	1
bin	111	1
bin	112	1
bin	113	1
bin	114	2
bin	115	0
bin	116	0
bin	117	0
bin	118	0
bin	119	0
bin	120	0
bin	121	0
bin	122	8
bin	123	1
bin	124	1
bin	125	1
bin	126	1
bin	127	1
bin	128	2
bin	129	0
bin	130	0
bin	131	0
bin	132	0
bin	133	0
bin	134	0
bin	135	0
bin	136	8
bin	137	1
bin	138	1
bin	139	1
bin	140	1
bin	141	2317
scalar SimphonyDHTNetwork.members[26] 	#packetsInTheNetwork 	1831
statistic SimphonyDHTNetwork.members[26] 	"packets statistics"
field count 1977
field mean 910.531107739
field stddev 528.11404785226
field sum 1800120
field sqrsum 2190180446
field min 0
field max 1830
attr type  int
bin	-INF	0
bin	-47	0
bin	-46	0
bin	-45	0
bin	-44	0
bin	-43	0
bin	-42	0
bin	-41	0
bin	-40	0
bin	-39	0
bin	-38	0
bin	-37	0
bin	-36	0
bin	-35	0
bin	-34	0
bin	-33	0
bin	-32	0
bin	-31	0
bin	-30	0
bin	-29	0
bin	-28	0
bin	-27	0
bin	-26	0
bin	-25	0
bin	-24	0
bin	-23	0
bin	-22	0
bin	-21	0
bin	-20	0
bin	-19	0
bin	-18	0
bin	-17	0
bin	-16	0
bin	-15	0
bin	-14	0
bin	-13	0
bin	-12	0
bin	-11	0
bin	-10	0
bin	-9	0
bin	-8	0
bin	-7	0
bin	-6	0
bin	-5	0
bin	-4	0
bin	-3	0
bin	-2	0
bin	-1	0
bin	0	1
bin	1	1
bin	2	1
bin	3	1
bin	4	1
bin	5	1
bin	6	1
bin	7	1
bin	8	1
bin	9	1
bin	10	1
bin	11	1
bin	12	1
bin	13	1
bin	14	1
bin	15	1
bin	16	1
bin	17	2
bin	18	0
bin	19	0
bin	20	0
bin	21	0
bin	22	0
bin	23	0
bin	24	0
bin	25	8
bin	26	1
bin	27	1
bin	28	1
bin	29	1
bin	30	1
bin	31	1
bin	32	2
bin	33	0
bin	34	0
bin	35	0
bin	36	0
bin	37	0
bin	38	0
bin	39	0
bin	40	8
bin	41	1
bin	42	1
bin	43	1
bin	44	1
bin	45	1
bin	46	1
bin	47	1
bin	48	1
bin	49	1
bin	50	1
bin	51	2
bin	52	0
bin	53	0
bin	54	0
bin	55	0
bin	56	0
bin	57	0
bin	58	0
bin	59	8
bin	60	1
bin	61	1
bin	62	1
bin	63	1
bin	64	1
bin	65	1
bin	66	1
bin	67	1
bin	68	2
bin	69	0
bin	70	0
bin	71	0
bin	72	0
bin	73	0
bin	74	0
bin	75	0
bin	76	8
bin	77	1
bin	78	1
bin	79	1
bin	80	1
bin	81	1
bin	82	1
bin	83	1
bin	84	1
bin	85	1
bin	86	1
bin	87	1
bin	88	1
bin	89	1
bin	90	1
bin	91	1
bin	92	2
bin	93	1
bin	94	2
bin	95	2
bin	96	1
bin	97	1
bin	98	1
bin	99	1
bin	100	1
bin	101	1
bin	102	1
bin	103	1
bin	104	1
bin	105	1
bin	106	1
bin	107	1
bin	108	1
bin	109	1
bin	110	1
bin	111	1
bin	112	1
bin	113	1
bin	114	1
bin	115	1
bin	116	1
bin	117	1
bin	118	1
bin	119	1
bin	120	1
bin	121	1
bin	122	1
bin	123	1
bin	124	2
bin	125	0
bin	126	0
bin	127	0
bin	128	0
bin	129	0
bin	130	0
bin	131	0
bin	132	8
bin	133	1
bin	134	1
bin	135	1
bin	136	1
bin	137	1
bin	138	1
bin	139	1
bin	140	1
bin	141	1828
scalar SimphonyDHTNetwork.members[27] 	#packetsInTheNetwork 	1350
statistic SimphonyDHTNetwork.members[27] 	"packets statistics"
field count 1455
field mean 677.65635738832
field stddev 389.71369431183
field sum 985990
field sqrsum 888991206
field min 0
field max 1349
attr type  int
bin	-INF	0
bin	-48	0
bin	-47	0
bin	-46	0
bin	-45	0
bin	-44	0
bin	-43	0
bin	-42	0
bin	-41	0
bin	-40	0
bin	-39	0
bin	-38	0
bin	-37	0
bin	-36	0
bin	-35	0
bin	-34	0
bin	-33	0
bin	-32	0
bin	-31	0
bin	-30	0
bin	-29	0
bin	-28	0
bin	-27	0
bin	-26	0
bin	-25	0
bin	-24	0
bin	-23	0
bin	-22	0
bin	-21	0
bin	-20	0
bin	-19	0
bin	-18	0
bin	-17	0
bin	-16	0
bin	-15	0
bin	-14	0
bin	-13	0
bin	-12	0
bin	-11	0
bin	-10	0
bin	-9	0
bin	-8	0
bin	-7	0
bin	-6	0
bin	-5	0
bin	-4	0
bin	-3	0
bin	-2	0
bin	-1	0
bin	0	1
bin	1	1
bin	2	1
bin	3	1
bin	4	1
bin	5	1
bin	6	1
bin	7	1
bin	8	1
bin	9	1
bin	10	2
bin	11	0
bin	12	0
bin	13	0
bin	14	0
bin	15	0
bin	16	0
bin	17	0
bin	18	8
bin	19	1
bin	20	1
bin	21	1
bin	22	2
bin	23	0
bin	24	0
bin	25	0
bin	26	0
bin	27	0
bin	28	0
bin	29	0
bin	30	8
bin	31	1
bin	32	1
bin	33	0
bin	34	2
bin	35	0
bin	36	0
bin	37	0
bin	38	0
bin	39	0
bin	40	0
bin	41	0
bin	42	8
bin	43	1
bin	44	2
bin	45	1
bin	46	1
bin	47	1
bin	48	1
bin	49	1
bin	50	1
bin	51	1
bin	52	1
bin	53	1
bin	54	1
bin	55	1
bin	56	1
bin	57	1
bin	58	1
bin	59	1
bin	60	1
bin	61	1
bin	62	2
bin	63	0
bin	64	0
bin	65	0
bin	66	0
bin	67	0
bin	68	0
bin	69	0
bin	70	8
bin	71	1
bin	72	1
bin	73	1
bin	74	1
bin	75	2
bin	76	0
bin	77	0
bin	78	0
bin	79	0
bin	80	0
bin	81	0
bin	82	0
bin	83	8
bin	84	1
bin	85	1
bin	86	1
bin	87	1
bin	88	2
bin	89	0
bin	90	0
bin	91	0
bin	92	0
bin	93	0
bin	94	0
bin	95	0
bin	96	8
bin	97	1
bin	98	1
bin	99	1
bin	100	1
bin	101	1
bin	102	1
bin	103	2
bin	104	0
bin	105	0
bin	106	0
bin	107	0
bin	108	0
bin	109	0
bin	110	0
bin	111	8
bin	112	1
bin	113	1
bin	114	1
bin	115	1
bin	116	1
bin	117	2
bin	118	0
bin	119	0
bin	120	0
bin	121	0
bin	122	0
bin	123	0
bin	124	0
bin	125	8
bin	126	1
bin	127	1
bin	128	1
bin	129	1
bin	130	2
bin	131	0
bin	132	0
bin	133	0
bin	134	0
bin	135	0
bin	136	0
bin	137	0
bin	138	8
bin	139	1
bin	140	1
bin	141	1
bin	142	1
bin	143	1
bin	144	1302
scalar SimphonyDHTNetwork.members[28] 	#packetsInTheNetwork 	948
statistic SimphonyDHTNetwork.members[28] 	"packets statistics"
field count 1030
field mean 481.09223300971
field stddev 274.73313889528
field sum 495525
field sqrsum 316060397
field min 0
field max 947
attr type  int
bin	-INF	0
bin	-47	0
bin	-46	0
bin	-45	0
bin	-44	0
bin	-43	0
bin	-42	0
bin	-41	0
bin	-40	0
bin	-39	0
bin	-38	0
bin	-37	0
bin	-36	0
bin	-35	0
bin	-34	0
bin	-33	0
bin	-32	0
bin	-31	0
bin	-30	0
bin	-29	0
bin	-28	0
bin	-27	0
bin	-26	0
bin	-25	0
bin	-24	0
bin	-23	0
bin	-22	0
bin	-21	0
bin	-20	0
bin	-19	0
bin	-18	0
bin	-17	0
bin	-16	0
bin	-15	0
bin	-14	0
bin	-13	0
bin	-12	0
bin	-11	0
bin	-10	0
bin	-9	0
bin	-8	0
bin	-7	0
bin	-6	0
bin	-5	0
bin	-4	0
bin	-3	0
bin	-2	0
bin	-1	0
bin	0	1
bin	1	1
bin	2	1
bin	3	0
bin	4	2
bin	5	0
bin	6	0
bin	7	0
bin	8	0
bin	9	0
bin	10	0
bin	11	0
bin	12	8
bin	13	1
bin	14	2
bin	15	1
bin	16	1
bin	17	1
bin	18	1
bin	19	1
bin	20	1
bin	21	1
bin	22	1
bin	23	1
bin	24	1
bin	25	1
bin	26	1
bin	27	1
bin	28	1
bin	29	1
bin	30	1
bin	31	1
bin	32	1
bin	33	1
bin	34	1
bin	35	1
bin	36	1
bin	37	1
bin	38	1
bin	39	1
bin	40	1
bin	41	1
bin	42	2
bin	43	0
bin	44	0
bin	45	0
bin	46	0
bin	47	0
bin	48	0
bin	49	0
bin	50	8
bin	51	1
bin	52	1
bin	53	1
bin	54	1
bin	55	1
bin	56	1
bin	57	1
bin	58	1
bin	59	2
bin	60	1
bin	61	1
bin	62	1
bin	63	1
bin	64	2
bin	65	0
bin	66	0
bin	67	0
bin	68	0
bin	69	0
bin	70	0
bin	71	0
bin	72	8
bin	73	1
bin	74	1
bin	75	1
bin	76	1
bin	77	1
bin	78	2
bin	79	1
bin	80	1
bin	81	1
bin	82	1
bin	83	1
bin	84	1
bin	85	1
bin	86	1
bin	87	1
bin	88	1
bin	89	1
bin	90	1
bin	91	1
bin	92	1
bin	93	1
bin	94	1
bin	95	1
bin	96	1
bin	97	0
bin	98	2
bin	99	0
bin	100	0
bin	101	0
bin	102	0
bin	103	0
bin	104	0
bin	105	0
bin	106	8
bin	107	1
bin	108	2
bin	109	1
bin	110	1
bin	111	1
bin	112	1
bin	113	2
bin	114	1
bin	115	1
bin	116	1
bin	117	1
bin	118	1
bin	119	2
bin	120	0
bin	121	0
bin	122	0
bin	123	0
bin	124	0
bin	125	0
bin	126	0
bin	127	8
bin	128	1
bin	129	1
bin	130	1
bin	131	1
bin	132	1
bin	133	1
bin	134	2
bin	135	1
bin	136	1
bin	137	1
bin	138	1
bin	139	1
bin	140	1
bin	141	880
scalar SimphonyDHTNetwork.members[29] 	#packetsInTheNetwork 	1638
statistic SimphonyDHTNetwork.members[29] 	"packets statistics"
field count 1767
field mean 821.8285229202
field stddev 470.19510482764
field sum 1452171
field sqrsum 1583868897
field min 0
field max 1637
attr type  int
bin	-INF	0
bin	-48	0
bin	-47	0
bin	-46	0
bin	-45	0
bin	-44	0
bin	-43	0
bin	-42	0
bin	-41	0
bin	-40	0
bin	-39	0
bin	-38	0
bin	-37	0
bin	-36	0
bin	-35	0
bin	-34	0
bin	-33	0
bin	-32	0
bin	-31	0
bin	-30	0
bin	-29	0
bin	-28	0
bin	-27	0
bin	-26	0
bin	-25	0
bin	-24	0
bin	-23	0
bin	-22	0
bin	-21	0
bin	-20	0
bin	-19	0
bin	-18	0
bin	-17	0
bin	-16	0
bin	-15	0
bin	-14	0
bin	-13	0
bin	-12	0
bin	-11	0
bin	-10	0
bin	-9	0
bin	-8	0
bin	-7	0
bin	-6	0
bin	-5	0
bin	-4	0
bin	-3	0
bin	-2	0
bin	-1	0
bin	0	1
bin	1	1
bin	2	1
bin	3	1
bin	4	1
bin	5	1
bin	6	1
bin	7	1
bin	8	1
bin	9	1
bin	10	1
bin	11	1
bin	12	1
bin	13	1
bin	14	1
bin	15	1
bin	16	1
bin	17	1
bin	18	1
bin	19	1
bin	20	1
bin	21	1
bin	22	1
bin	23	1
bin	24	1
bin	25	1
bin	26	1
bin	27	1
bin	28	2
bin	29	1
bin	30	1
bin	31	1
bin	32	1
bin	33	1
bin	34	1
bin	35	1
bin	36	1
bin	37	1
bin	38	1
bin	39	1
bin	40	1
bin	41	1
bin	42	2
bin	43	0
bin	44	0
bin	45	0
bin	46	0
bin	47	0
bin	48	0
bin	49	0
bin	50	8
bin	51	1
bin	52	1
bin	53	1
bin	54	1
bin	55	2
bin	56	0
bin	57	0
bin	58	0
bin	59	0
bin	60	0
bin	61	0
bin	62	0
bin	63	8
bin	64	1
bin	65	1
bin	66	1
bin	67	1
bin	68	1
bin	69	1
bin	70	1
bin	71	1
bin	72	1
bin	73	1
bin	74	1
bin	75	2
bin	76	0
bin	77	0
bin	78	0
bin	79	0
bin	80	0
bin	81	0
bin	82	0
bin	83	8
bin	84	1
bin	85	1
bin	86	1
bin	87	1
bin	88	1
bin	89	1
bin	90	1
bin	91	1
bin	92	1
bin	93	1
bin	94	1
bin	95	1
bin	96	1
bin	97	1
bin	98	1
bin	99	1
bin	100	1
bin	101	1
bin	102	1
bin	103	1
bin	104	1
bin	105	1
bin	106	1
bin	107	1
bin	108	1
bin	109	1
bin	110	1
bin	111	2
bin	112	0
bin	113	0
bin	114	0
bin	115	0
bin	116	0
bin	117	0
bin	118	0
bin	119	8
bin	120	1
bin	121	1
bin	122	1
bin	123	2
bin	124	1
bin	125	1
bin	126	1
bin	127	1
bin	128	2
bin	129	0
bin	130	0
bin	131	0
bin	132	0
bin	133	0
bin	134	0
bin	135	0
bin	136	8
bin	137	1
bin	138	1
bin	139	1
bin	140	1
bin	141	1
bin	142	1
bin	143	1617
scalar SimphonyDHTNetwork.members[30] 	#packetsInTheNetwork 	1654
statistic SimphonyDHTNetwork.members[30] 	"packets statistics"
field count 1771
field mean 827.35855448899
field stddev 475.52810091085
field sum 1465252
field sqrsum 1612533522
field min 1
field max 1653
attr type  int
bin	-INF	0
bin	-45	0
bin	-44	0
bin	-43	0
bin	-42	0
bin	-41	0
bin	-40	0
bin	-39	0
bin	-38	0
bin	-37	0
bin	-36	0
bin	-35	0
bin	-34	0
bin	-33	0
bin	-32	0
bin	-31	0
bin	-30	0
bin	-29	0
bin	-28	0
bin	-27	0
bin	-26	0
bin	-25	0
bin	-24	0
bin	-23	0
bin	-22	0
bin	-21	0
bin	-20	0
bin	-19	0
bin	-18	0
bin	-17	0
bin	-16	0
bin	-15	0
bin	-14	0
bin	-13	0
bin	-12	0
bin	-11	0
bin	-10	0
bin	-9	0
bin	-8	0
bin	-7	0
bin	-6	0
bin	-5	0
bin	-4	0
bin	-3	0
bin	-2	0
bin	-1	0
bin	0	0
bin	1	2
bin	2	0
bin	3	0
bin	4	0
bin	5	0
bin	6	0
bin	7	0
bin	8	0
bin	9	8
bin	10	1
bin	11	2
bin	12	1
bin	13	1
bin	14	1
bin	15	1
bin	16	1
bin	17	1
bin	18	1
bin	19	1
bin	20	1
bin	21	1
bin	22	1
bin	23	1
bin	24	1
bin	25	1
bin	26	1
bin	27	1
bin	28	1
bin	29	1
bin	30	1
bin	31	1
bin	32	1
bin	33	2
bin	34	0
bin	35	0
bin	36	0
bin	37	0
bin	38	0
bin	39	0
bin	40	0
bin	41	8
bin	42	1
bin	43	1
bin	44	1
bin	45	1
bin	46	2
bin	47	0
bin	48	0
bin	49	0
bin	50	0
bin	51	0
bin	52	0
bin	53	0
bin	54	8
bin	55	1
bin	56	1
bin	57	1
bin	58	1
bin	59	1
bin	60	1
bin	61	1
bin	62	1
bin	63	1
bin	64	1
bin	65	1
bin	66	2
bin	67	0
bin	68	0
bin	69	0
bin	70	0
bin	71	0
bin	72	0
bin	73	0
bin	74	8
bin	75	1
bin	76	1
bin	77	1
bin	78	2
bin	79	0
bin	80	0
bin	81	0
bin	82	0
bin	83	0
bin	84	0
bin	85	0
bin	86	8
bin	87	1
bin	88	1
bin	89	1
bin	90	1
bin	91	1
bin	92	1
bin	93	2
bin	94	0
bin	95	0
bin	96	0
bin	97	0
bin	98	0
bin	99	0
bin	100	0
bin	101	8
bin	102	1
bin	103	1
bin	104	1
bin	105	1
bin	106	1
bin	107	1
bin	108	1
bin	109	1
bin	110	1
bin	111	1
bin	112	1
bin	113	1
bin	114	1
bin	115	1
bin	116	1
bin	117	1
bin	118	1
bin	119	1
bin	120	1
bin	121	1
bin	122	1
bin	123	1
bin	124	1
bin	125	2
bin	126	0
bin	127	0
bin	128	0
bin	129	0
bin	130	0
bin	131	0
bin	132	0
bin	133	8
bin	134	1
bin	135	1
bin	136	1
bin	137	0
bin	138	2
bin	139	1625
scalar SimphonyDHTNetwork.members[31] 	#packetsInTheNetwork 	1292
statistic SimphonyDHTNetwork.members[31] 	"packets statistics"
field count 1398
field mean 654.06652360515
field stddev 374.590365446
field sum 914385
field sqrsum 794092783
field min 0
field max 1291
attr type  int
bin	-INF	0
bin	-48	0
bin	-47	0
bin	-46	0
bin	-45	0
bin	-44	0
bin	-43	0
bin	-42	0
bin	-41	0
bin	-40	0
bin	-39	0
bin	-38	0
bin	-37	0
bin	-36	0
bin	-35	0
bin	-34	0
bin	-33	0
bin	-32	0
bin	-31	0
bin	-30	0
bin	-29	0
bin	-28	0
bin	-27	0
bin	-26	0
bin	-25	0
bin	-24	0
bin	-23	0
bin	-22	0
bin	-21	0
bin	-20	0
bin	-19	0
bin	-18	0
bin	-17	0
bin	-16	0
bin	-15	0
bin	-14	0
bin	-13	0
bin	-12	0
bin	-11	0
bin	-10	0
bin	-9	0
bin	-8	0
bin	-7	0
bin	-6	0
bin	-5	0
bin	-4	0
bin	-3	0
bin	-2	0
bin	-1	0
bin	0	1
bin	1	1
bin	2	1
bin	3	1
bin	4	1
bin	5	1
bin	6	1
bin	7	2
bin	8	0
bin	9	0
bin	10	0
bin	11	0
bin	12	0
bin	13	0
bin	14	0
bin	15	8
bin	16	1
bin	17	1
bin	18	1
bin	19	1
bin	20	2
bin	21	0
bin	22	0
bin	23	0
bin	24	0
bin	25	0
bin	26	0
bin	27	0
bin	28	8
bin	29	1
bin	30	1
bin	31	1
bin	32	1
bin	33	2
bin	34	0
bin	35	0
bin	36	0
bin	37	0
bin	38	0
bin	39	0
bin	40	0
bin	41	8
bin	42	1
bin	43	1
bin	44	1
bin	45	1
bin	46	1
bin	47	1
bin	48	1
bin	49	1
bin	50	1
bin	51	1
bin	52	1
bin	53	1
bin	54	1
bin	55	1
bin	56	1
bin	57	1
bin	58	1
bin	59	1
bin	60	1
bin	61	1
bin	62	1
bin	63	1
bin	64	1
bin	65	1
bin	66	1
bin	67	1
bin	68	1
bin	69	1
bin	70	1
bin	71	1
bin	72	1
bin	73	1
bin	74	1
bin	75	1
bin	76	2
bin	77	0
bin	78	0
bin	79	0
bin	80	0
bin	81	0
bin	82	0
bin	83	0
bin	84	8
bin	85	1
bin	86	1
bin	87	1
bin	88	1
bin	89	1
bin	90	1
bin	91	2
bin	92	1
bin	93	1
bin	94	0
bin	95	2
bin	96	0
bin	97	0
bin	98	0
bin	99	0
bin	100	0
bin	101	0
bin	102	0
bin	103	8
bin	104	1
bin	105	2
bin	106	1
bin	107	2
bin	108	2
bin	109	1
bin	110	1
bin	111	2
bin	112	0
bin	113	0
bin	114	0
bin	115	0
bin	116	0
bin	117	0
bin	118	0
bin	119	8
bin	120	1
bin	121	1
bin	122	1
bin	123	1
bin	124	1
bin	125	2
bin	126	0
bin	127	0
bin	128	0
bin	129	0
bin	130	0
bin	131	0
bin	132	0
bin	133	8
bin	134	1
bin	135	1
bin	136	1
bin	137	1
bin	138	1
bin	139	2
bin	140	0
bin	141	0
bin	142	0
bin	143	1247
scalar SimphonyDHTNetwork.members[32] 	#packetsInTheNetwork 	1233
statistic SimphonyDHTNetwork.members[32] 	"packets statistics"
field count 1332
field mean 621.90540540541
field stddev 357.06929215456
field sum 828378
field sqrsum 684873232
field min 0
field max 1232
attr type  int
bin	-INF	0
bin	-47	0
bin	-46	0
bin	-45	0
bin	-44	0
bin	-43	0
bin	-42	0
bin	-41	0
bin	-40	0
bin	-39	0
bin	-38	0
bin	-37	0
bin	-36	0
bin	-35	0
bin	-34	0
bin	-33	0
bin	-32	0
bin	-31	0
bin	-30	0
bin	-29	0
bin	-28	0
bin	-27	0
bin	-26	0
bin	-25	0
bin	-24	0
bin	-23	0
bin	-22	0
bin	-21	0
bin	-20	0
bin	-19	0
bin	-18	0
bin	-17	0
bin	-16	0
bin	-15	0
bin	-14	0
bin	-13	0
bin	-12	0
bin	-11	0
bin	-10	0
bin	-9	0
bin	-8	0
bin	-7	0
bin	-6	0
bin	-5	0
bin	-4	0
bin	-3	0
bin	-2	0
bin	-1	0
bin	0	1
bin	1	1
bin	2	1
bin	3	2
bin	4	1
bin	5	1
bin	6	1
bin	7	1
bin	8	1
bin	9	1
bin	10	1
bin	11	1
bin	12	1
bin	13	1
bin	14	0
bin	15	2
bin	16	0
bin	17	0
bin	18	0
bin	19	0
bin	20	0
bin	21	0
bin	22	0
bin	23	8
bin	24	1
bin	25	2
bin	26	1
bin	27	1
bin	28	1
bin	29	1
bin	30	1
bin	31	1
bin	32	1
bin	33	1
bin	34	1
bin	35	1
bin	36	1
bin	37	1
bin	38	1
bin	39	1
bin	40	1
bin	41	1
bin	42	2
bin	43	0
bin	44	0
bin	45	0
bin	46	0
bin	47	0
bin	48	0
bin	49	0
bin	50	8
bin	51	1
bin	52	1
bin	53	1
bin	54	1
bin	55	2
bin	56	0
bin	57	0
bin	58	0
bin	59	0
bin	60	0
bin	61	0
bin	62	0
bin	63	8
bin	64	1
bin	65	1
bin	66	1
bin	67	1
bin	68	1
bin	69	1
bin	70	2
bin	71	0
bin	72	0
bin	73	0
bin	74	0
bin	75	0
bin	76	0
bin	77	0
bin	78	8
bin	79	1
bin	80	1
bin	81	1
bin	82	1
bin	83	1
bin	84	1
bin	85	1
bin	86	1
bin	87	1
bin	88	1
bin	89	1
bin	90	1
bin	91	2
bin	92	1
bin	93	2
bin	94	2
bin	95	1
bin	96	1
bin	97	1
bin	98	1
bin	99	1
bin	100	1
bin	101	1
bin	102	2
bin	103	0
bin	104	0
bin	105	0
bin	106	0
bin	107	0
bin	108	0
bin	109	0
bin	110	8
bin	111	1
bin	112	1
bin	113	1
bin	114	1
bin	115	1
bin	116	1
bin	117	1
bin	118	1
bin	119	1
bin	120	1
bin	121	1
bin	122	1
bin	123	1
bin	124	1
bin	125	2
bin	126	0
bin	127	0
bin	128	0
bin	129	0
bin	130	0
bin	131	0
bin	132	0
bin	133	1
bin	134	8
bin	135	1
bin	136	2
bin	137	0
bin	138	0
bin	139	0
bin	140	1184
scalar SimphonyDHTNetwork.members[33] 	#packetsInTheNetwork 	1262
statistic SimphonyDHTNetwork.members[33] 	"packets statistics"
field count 1341
field mean 635.99925428784
field stddev 363.91400390511
field sum 852875
field sqrsum 719888623
field min 0
field max 1261
attr type  int
bin	-INF	0
bin	-47	0
bin	-46	0
bin	-45	0
bin	-44	0
bin	-43	0
bin	-42	0
bin	-41	0
bin	-40	0
bin	-39	0
bin	-38	0
bin	-37	0
bin	-36	0
bin	-35	0
bin	-34	0
bin	-33	0
bin	-32	0
bin	-31	0
bin	-30	0
bin	-29	0
bin	-28	0
bin	-27	0
bin	-26	0
bin	-25	0
bin	-24	0
bin	-23	0
bin	-22	0
bin	-21	0
bin	-20	0
bin	-19	0
bin	-18	0
bin	-17	0
bin	-16	0
bin	-15	0
bin	-14	0
bin	-13	0
bin	-12	0
bin	-11	0
bin	-10	0
bin	-9	0
bin	-8	0
bin	-7	0
bin	-6	0
bin	-5	0
bin	-4	0
bin	-3	0
bin	-2	0
bin	-1	0
bin	0	1
bin	1	1
bin	2	1
bin	3	1
bin	4	2
bin	5	0
bin	6	0
bin	7	0
bin	8	0
bin	9	0
bin	10	0
bin	11	0
bin	12	8
bin	13	1
bin	14	1
bin	15	1
bin	16	1
bin	17	2
bin	18	0
bin	19	0
bin	20	0
bin	21	0
bin	22	0
bin	23	0
bin	24	0
bin	25	8
bin	26	1
bin	27	1
bin	28	1
bin	29	1
bin	30	1
bin	31	1
bin	32	1
bin	33	1
bin	34	0
bin	35	2
bin	36	0
bin	37	0
bin	38	0
bin	39	0
bin	40	0
bin	41	0
bin	42	0
bin	43	8
bin	44	2
bin	45	1
bin	46	1
bin	47	1
bin	48	1
bin	49	1
bin	50	1
bin	51	2
bin	52	0
bin	53	0
bin	54	0
bin	55	0
bin	56	0
bin	57	0
bin	58	0
bin	59	8
bin	60	1
bin	61	1
bin	62	1
bin	63	1
bin	64	1
bin	65	1
bin	66	1
bin	67	1
bin	68	1
bin	69	1
bin	70	1
bin	71	1
bin	72	1
bin	73	1
bin	74	1
bin	75	1
bin	76	1
bin	77	1
bin	78	1
bin	79	2
bin	80	0
bin	81	0
bin	82	0
bin	83	0
bin	84	0
bin	85	0
bin	86	0
bin	87	8
bin	88	1
bin	89	1
bin	90	1
bin	91	1
bin	92	1
bin	93	1
bin	94	1
bin	95	1
bin	96	1
bin	97	1
bin	98	1
bin	99	1
bin	100	1
bin	101	1
bin	102	1
bin	103	1
bin	104	1
bin	105	1
bin	106	1
bin	107	1
bin	108	1
bin	109	1
bin	110	1
bin	111	1
bin	112	1
bin	113	1
bin	114	1
bin	115	1
bin	116	1
bin	117	1
bin	118	2
bin	119	0
bin	120	0
bin	121	0
bin	122	0
bin	123	0
bin	124	0
bin	125	7
bin	126	1
bin	127	1
bin	128	1
bin	129	1
bin	130	1
bin	131	1
bin	132	1
bin	133	1
bin	134	1
bin	135	1
bin	136	1
bin	137	1
bin	138	1
bin	139	1
bin	140	1
bin	141	1194
scalar SimphonyDHTNetwork.members[34] 	#packetsInTheNetwork 	1347
statistic SimphonyDHTNetwork.members[34] 	"packets statistics"
field count 1461
field mean 681.92744695414
field stddev 388.58113723121
field sum 996296
field sqrsum 899854726
field min 0
field max 1346
attr type  int
bin	-INF	0
bin	-50	0
bin	-49	0
bin	-48	0
bin	-47	0
bin	-46	0
bin	-45	0
bin	-44	0
bin	-43	0
bin	-42	0
bin	-41	0
bin	-40	0
bin	-39	0
bin	-38	0
bin	-37	0
bin	-36	0
bin	-35	0
bin	-34	0
bin	-33	0
bin	-32	0
bin	-31	0
bin	-30	0
bin	-29	0
bin	-28	0
bin	-27	0
bin	-26	0
bin	-25	0
bin	-24	0
bin	-23	0
bin	-22	0
bin	-21	0
bin	-20	0
bin	-19	0
bin	-18	0
bin	-17	0
bin	-16	0
bin	-15	0
bin	-14	0
bin	-13	0
bin	-12	0
bin	-11	0
bin	-10	0
bin	-9	0
bin	-8	0
bin	-7	0
bin	-6	0
bin	-5	0
bin	-4	0
bin	-3	0
bin	-2	0
bin	-1	0
bin	0	1
bin	1	1
bin	2	1
bin	3	1
bin	4	1
bin	5	2
bin	6	0
bin	7	0
bin	8	0
bin	9	0
bin	10	0
bin	11	0
bin	12	0
bin	13	8
bin	14	1
bin	15	1
bin	16	1
bin	17	1
bin	18	1
bin	19	1
bin	20	1
bin	21	1
bin	22	1
bin	23	1
bin	24	1
bin	25	1
bin	26	1
bin	27	1
bin	28	1
bin	29	1
bin	30	1
bin	31	1
bin	32	1
bin	33	1
bin	34	1
bin	35	1
bin	36	1
bin	37	1
bin	38	1
bin	39	1
bin	40	1
bin	41	1
bin	42	1
bin	43	1
bin	44	1
bin	45	1
bin	46	1
bin	47	1
bin	48	1
bin	49	1
bin	50	1
bin	51	1
bin	52	1
bin	53	1
bin	54	1
bin	55	1
bin	56	1
bin	57	1
bin	58	1
bin	59	2
bin	60	0
bin	61	0
bin	62	0
bin	63	0
bin	64	0
bin	65	0
bin	66	0
bin	67	8
bin	68	1
bin	69	1
bin	70	1
bin	71	1
bin	72	1
bin	73	1
bin	74	1
bin	75	1
bin	76	1
bin	77	2
bin	78	0
bin	79	0
bin	80	0
bin	81	0
bin	82	0
bin	83	0
bin	84	7
bin	85	1
bin	86	1
bin	87	1
bin	88	1
bin	89	1
bin	90	1
bin	91	1
bin	92	1
bin	93	2
bin	94	0
bin	95	0
bin	96	0
bin	97	0
bin	98	0
bin	99	0
bin	100	7
bin	101	1
bin	102	1
bin	103	1
bin	104	1
bin	105	1
bin	106	1
bin	107	1
bin	108	1
bin	109	1
bin	110	1
bin	111	1
bin	112	1
bin	113	1
bin	114	1
bin	115	1
bin	116	1
bin	117	1
bin	118	1
bin	119	1
bin	120	1
bin	121	2
bin	122	0
bin	123	0
bin	124	0
bin	125	0
bin	126	0
bin	127	0
bin	128	7
bin	129	1
bin	130	1
bin	131	1
bin	132	1
bin	133	2
bin	134	0
bin	135	0
bin	136	0
bin	137	0
bin	138	0
bin	139	0
bin	140	7
bin	141	1
bin	142	1
bin	143	1
bin	144	1
bin	145	2
bin	146	0
bin	147	0
bin	148	0
bin	149	0
bin	150	1308
scalar SimphonyDHTNetwork.members[35] 	#packetsInTheNetwork 	1552
statistic SimphonyDHTNetwork.members[35] 	"packets statistics"
field count 1663
field mean 783.29404690319
field stddev 447.09628557465
field sum 1302618
field sqrsum 1352558562
field min 0
field max 1551
attr type  int
bin	-INF	0
bin	-48	0
bin	-47	0
bin	-46	0
bin	-45	0
bin	-44	0
bin	-43	0
bin	-42	0
bin	-41	0
bin	-40	0
bin	-39	0
bin	-38	0
bin	-37	0
bin	-36	0
bin	-35	0
bin	-34	0
bin	-33	0
bin	-32	0
bin	-31	0
bin	-30	0
bin	-29	0
bin	-28	0
bin	-27	0
bin	-26	0
bin	-25	0
bin	-24	0
bin	-23	0
bin	-22	0
bin	-21	0
bin	-20	0
bin	-19	0
bin	-18	0
bin	-17	0
bin	-16	0
bin	-15	0
bin	-14	0
bin	-13	0
bin	-12	0
bin	-11	0
bin	-10	0
bin	-9	0
bin	-8	0
bin	-7	0
bin	-6	0
bin	-5	0
bin	-4	0
bin	-3	0
bin	-2	0
bin	-1	0
bin	0	1
bin	1	1
bin	2	1
bin	3	1
bin	4	1
bin	5	2
bin	6	0
bin	7	0
bin	8	0
bin	9	0
bin	10	0
bin	11	0
bin	12	0
bin	13	8
bin	14	1
bin	15	1
bin	16	1
bin	17	1
bin	18	2
bin	19	0
bin	20	0
bin	21	0
bin	22	0
bin	23	0
bin	24	0
bin	25	0
bin	26	8
bin	27	1
bin	28	1
bin	29	1
bin	30	1
bin	31	1
bin	32	1
bin	33	1
bin	34	1
bin	35	1
bin	36	1
bin	37	1
bin	38	1
bin	39	1
bin	40	0
bin	41	2
bin	42	0
bin	43	0
bin	44	0
bin	45	0
bin	46	0
bin	47	0
bin	48	0
bin	49	8
bin	50	1
bin	51	2
bin	52	1
bin	53	1
bin	54	1
bin	55	1
bin	56	1
bin	57	1
bin	58	1
bin	59	1
bin	60	1
bin	61	1
bin	62	1
bin	63	1
bin	64	1
bin	65	1
bin	66	1
bin	67	1
bin	68	1
bin	69	0
bin	70	2
bin	71	0
bin	72	0
bin	73	0
bin	74	0
bin	75	0
bin	76	0
bin	77	0
bin	78	8
bin	79	1
bin	80	2
bin	81	1
bin	82	1
bin	83	1
bin	84	1
bin	85	1
bin	86	1
bin	87	1
bin	88	1
bin	89	1
bin	90	1
bin	91	1
bin	92	1
bin	93	1
bin	94	1
bin	95	1
bin	96	1
bin	97	1
bin	98	1
bin	99	1
bin	100	1
bin	101	1
bin	102	1
bin	103	1
bin	104	1
bin	105	1
bin	106	1
bin	107	1
bin	108	1
bin	109	2
bin	110	1
bin	111	1
bin	112	2
bin	113	0
bin	114	0
bin	115	0
bin	116	0
bin	117	0
bin	118	0
bin	119	0
bin	120	8
bin	121	1
bin	122	1
bin	123	1
bin	124	1
bin	125	1
bin	126	1
bin	127	1
bin	128	1
bin	129	1
bin	130	1
bin	131	1
bin	132	1
bin	133	1
bin	134	1
bin	135	1
bin	136	1
bin	137	1
bin	138	1
bin	139	1
bin	140	1
bin	141	1
bin	142	1
bin	143	1514
scalar SimphonyDHTNetwork.members[36] 	#packetsInTheNetwork 	1055
statistic SimphonyDHTNetwork.members[36] 	"packets statistics"
field count 1130
field mean 533.58938053097
field stddev 304.22206685791
field sum 602956
field sqrsum 426221072
field min 0
field max 1055
attr type  int
bin	-INF	0
bin	-49	0
bin	-48	0
bin	-47	0
bin	-46	0
bin	-45	0
bin	-44	0
bin	-43	0
bin	-42	0
bin	-41	0
bin	-40	0
bin	-39	0
bin	-38	0
bin	-37	0
bin	-36	0
bin	-35	0
bin	-34	0
bin	-33	0
bin	-32	0
bin	-31	0
bin	-30	0
bin	-29	0
bin	-28	0
bin	-27	0
bin	-26	0
bin	-25	0
bin	-24	0
bin	-23	0
bin	-22	0
bin	-21	0
bin	-20	0
bin	-19	0
bin	-18	0
bin	-17	0
bin	-16	0
bin	-15	0
bin	-14	0
bin	-13	0
bin	-12	0
bin	-11	0
bin	-10	0
bin	-9	0
bin	-8	0
bin	-7	0
bin	-6	0
bin	-5	0
bin	-4	0
bin	-3	0
bin	-2	0
bin	-1	0
bin	0	1
bin	1	1
bin	2	1
bin	3	1
bin	4	1
bin	5	1
bin	6	1
bin	7	1
bin	8	1
bin	9	1
bin	10	1
bin	11	1
bin	12	1
bin	13	1
bin	14	1
bin	15	1
bin	16	1
bin	17	1
bin	18	1
bin	19	0
bin	20	2
bin	21	0
bin	22	0
bin	23	0
bin	24	0
bin	25	0
bin	26	0
bin	27	0
bin	28	8
bin	29	1
bin	30	1
bin	31	2
bin	32	0
bin	33	0
bin	34	0
bin	35	0
bin	36	0
bin	37	0
bin	38	0
bin	39	8
bin	40	1
bin	41	2
bin	42	1
bin	43	1
bin	44	1
bin	45	1
bin	46	1
bin	47	1
bin	48	1
bin	49	1
bin	50	1
bin	51	1
bin	52	1
bin	53	1
bin	54	1
bin	55	1
bin	56	1
bin	57	1
bin	58	1
bin	59	1
bin	60	1
bin	61	1
bin	62	1
bin	63	1
bin	64	1
bin	65	1
bin	66	1
bin	67	1
bin	68	1
bin	69	1
bin	70	1
bin	71	1
bin	72	1
bin	73	1
bin	74	1
bin	75	1
bin	76	1
bin	77	1
bin	78	1
bin	79	1
bin	80	1
bin	81	1
bin	82	1
bin	83	1
bin	84	1
bin	85	1
bin	86	1
bin	87	1
bin	88	1
bin	89	1
bin	90	1
bin	91	1
bin	92	1
bin	93	1
bin	94	1
bin	95	1
bin	96	1
bin	97	1
bin	98	1
bin	99	1
bin	100	1
bin	101	1
bin	102	1
bin	103	1
bin	104	1
bin	105	1
bin	106	2
bin	107	0
bin	108	0
bin	109	0
bin	110	0
bin	111	0
bin	112	0
bin	113	0
bin	114	8
bin	115	1
bin	116	1
bin	117	1
bin	118	1
bin	119	1
bin	120	0
bin	121	2
bin	122	0
bin	123	0
bin	124	0
bin	125	0
bin	126	0
bin	127	0
bin	128	0
bin	129	8
bin	130	1
bin	131	2
bin	132	1
bin	133	1
bin	134	1
bin	135	1
bin	136	1
bin	137	1
bin	138	1
bin	139	1
bin	140	1
bin	141	1
bin	142	1
bin	143	1
bin	144	1
bin	145	1
bin	146	980
scalar SimphonyDHTNetwork.members[37] 	#packetsInTheNetwork 	1386
statistic SimphonyDHTNetwork.members[37] 	"packets statistics"
field count 1508
field mean 695.03713527851
field stddev 399.89472397004
field sum 1048116
field sqrsum 969472638
field min 0
field max 1385
attr type  int
bin	-INF	0
bin	-47	0
bin	-46	0
bin	-45	0
bin	-44	0
bin	-43	0
bin	-42	0
bin	-41	0
bin	-40	0
bin	-39	0
bin	-38	0
bin	-37	0
bin	-36	0
bin	-35	0
bin	-34	0
bin	-33	0
bin	-32	0
bin	-31	0
bin	-30	0
bin	-29	0
bin	-28	0
bin	-27	0
bin	-26	0
bin	-25	0
bin	-24	0
bin	-23	0
bin	-22	0
bin	-21	0
bin	-20	0
bin	-19	0
bin	-18	0
bin	-17	0
bin	-16	0
bin	-15	0
bin	-14	0
bin	-13	0
bin	-12	0
bin	-11	0
bin	-10	0
bin	-9	0
bin	-8	0
bin	-7	0
bin	-6	0
bin	-5	0
bin	-4	0
bin	-3	0
bin	-2	0
bin	-1	0
bin	0	1
bin	1	1
bin	2	1
bin	3	1
bin	4	1
bin	5	1
bin	6	1
bin	7	1
bin	8	1
bin	9	1
bin	10	2
bin	11	0
bin	12	0
bin	13	0
bin	14	0
bin	15	0
bin	16	0
bin	17	0
bin	18	8
bin	19	1
bin	20	1
bin	21	1
bin	22	1
bin	23	2
bin	24	0
bin	25	0
bin	26	0
bin	27	0
bin	28	0
bin	29	0
bin	30	0
bin	31	8
bin	32	1
bin	33	1
bin	34	1
bin	35	1
bin	36	1
bin	37	1
bin	38	1
bin	39	1
bin	40	1
bin	41	1
bin	42	0
bin	43	2
bin	44	0
bin	45	0
bin	46	0
bin	47	0
bin	48	0
bin	49	0
bin	50	0
bin	51	8
bin	52	1
bin	53	2
bin	54	1
bin	55	2
bin	56	0
bin	57	0
bin	58	0
bin	59	0
bin	60	0
bin	61	0
bin	62	0
bin	63	8
bin	64	1
bin	65	1
bin	66	1
bin	67	1
bin	68	2
bin	69	0
bin	70	0
bin	71	0
bin	72	0
bin	73	0
bin	74	0
bin	75	0
bin	76	8
bin	77	1
bin	78	1
bin	79	1
bin	80	2
bin	81	0
bin	82	0
bin	83	0
bin	84	0
bin	85	0
bin	86	0
bin	87	0
bin	88	8
bin	89	1
bin	90	1
bin	91	1
bin	92	1
bin	93	1
bin	94	1
bin	95	1
bin	96	1
bin	97	1
bin	98	1
bin	99	2
bin	100	2
bin	101	1
bin	102	1
bin	103	2
bin	104	0
bin	105	0
bin	106	0
bin	107	0
bin	108	0
bin	109	0
bin	110	0
bin	111	8
bin	112	1
bin	113	1
bin	114	1
bin	115	1
bin	116	1
bin	117	1
bin	118	1
bin	119	2
bin	120	1
bin	121	1
bin	122	1
bin	123	1
bin	124	1
bin	125	2
bin	126	2
bin	127	1
bin	128	1
bin	129	2
bin	130	0
bin	131	0
bin	132	0
bin	133	0
bin	134	0
bin	135	0
bin	136	0
bin	137	8
bin	138	1
bin	139	1
bin	140	1355
scalar SimphonyDHTNetwork.members[38] 	#packetsInTheNetwork 	1208
statistic SimphonyDHTNetwork.members[38] 	"packets statistics"
field count 1318
field mean 609.0751138088
field stddev 346.92352812806
field sum 802761
field sqrsum 647450513
field min 0
field max 1207
attr type  int
bin	-INF	0
bin	-46	0
bin	-45	0
bin	-44	0
bin	-43	0
bin	-42	0
bin	-41	0
bin	-40	0
bin	-39	0
bin	-38	0
bin	-37	0
bin	-36	0
bin	-35	0
bin	-34	0
bin	-33	0
bin	-32	0
bin	-31	0
bin	-30	0
bin	-29	0
bin	-28	0
bin	-27	0
bin	-26	0
bin	-25	0
bin	-24	0
bin	-23	0
bin	-22	0
bin	-21	0
bin	-20	0
bin	-19	0
bin	-18	0
bin	-17	0
bin	-16	0
bin	-15	0
bin	-14	0
bin	-13	0
bin	-12	0
bin	-11	0
bin	-10	0
bin	-9	0
bin	-8	0
bin	-7	0
bin	-6	0
bin	-5	0
bin	-4	0
bin	-3	0
bin	-2	0
bin	-1	0
bin	0	1
bin	1	1
bin	2	1
bin	3	1
bin	4	1
bin	5	1
bin	6	1
bin	7	1
bin	8	1
bin	9	1
[...]
bin	44	1
bin	45	1
bin	46	1
bin	47	0
bin	48	0
bin	49	0
bin	50	0
bin	51	0
bin	52	0
bin	53	0
bin	54	0
bin	55	0
bin	56	0
bin	57	0
bin	58	0
bin	59	0
bin	60	0
bin	61	0
bin	62	0
bin	63	0
bin	64	0
bin	65	0
bin	66	0
bin	67	0
bin	68	0
bin	69	0
scalar SimphonyDHTNetwork.members[494] 	#packetsInTheNetwork 	117
statistic SimphonyDHTNetwork.members[494] 	"packets statistics"
field count 131
field mean 58.564885496183
field stddev 33.428476859993
field sum 7672
field sqrsum 594580
field min 0
field max 116
attr type  int
bin	-INF	0
bin	-44	0
bin	-43	0
bin	-42	0
bin	-41	0
bin	-40	0
bin	-39	0
bin	-38	0
bin	-37	0
bin	-36	0
bin	-35	0
bin	-34	0
bin	-33	0
bin	-32	0
bin	-31	0
bin	-30	0
bin	-29	0
bin	-28	0
bin	-27	0
bin	-26	0
bin	-25	0
bin	-24	0
bin	-23	0
bin	-22	0
bin	-21	0
bin	-20	0
bin	-19	0
bin	-18	0
bin	-17	0
bin	-16	0
bin	-15	0
bin	-14	0
bin	-13	0
bin	-12	0
bin	-11	0
bin	-10	0
bin	-9	0
bin	-8	0
bin	-7	0
bin	-6	0
bin	-5	0
bin	-4	0
bin	-3	0
bin	-2	0
bin	-1	0
bin	0	1
bin	1	0
bin	2	0
bin	3	1
bin	4	3
bin	5	0
bin	6	0
bin	7	2
bin	8	0
bin	9	2
bin	10	1
bin	11	1
bin	12	2
bin	13	0
bin	14	2
bin	15	1
bin	16	1
bin	17	2
bin	18	0
bin	19	2
bin	20	1
bin	21	2
bin	22	1
bin	23	1
bin	24	2
bin	25	0
bin	26	0
bin	27	3
bin	28	1
bin	29	1
bin	30	1
bin	31	1
bin	32	1
bin	33	2
bin	34	0
bin	35	2
bin	36	1
bin	37	1
bin	38	1
bin	39	1
bin	40	1
bin	41	2
bin	42	0
bin	43	2
bin	44	1
bin	45	1
bin	46	1
bin	47	1
bin	48	2
bin	49	0
bin	50	2
bin	51	1
bin	52	1
bin	53	1
bin	54	1
bin	55	1
bin	56	2
bin	57	0
bin	58	2
bin	59	1
bin	60	1
bin	61	1
bin	62	1
bin	63	1
bin	64	2
bin	65	0
bin	66	2
bin	67	1
bin	68	1
bin	69	1
bin	70	1
bin	71	1
bin	72	2
bin	73	0
bin	74	2
bin	75	1
bin	76	1
bin	77	1
bin	78	1
bin	79	1
bin	80	2
bin	81	0
bin	82	2
bin	83	1
bin	84	1
bin	85	1
bin	86	1
bin	87	1
bin	88	2
bin	89	0
bin	90	2
bin	91	1
bin	92	1
bin	93	1
bin	94	1
bin	95	1
bin	96	2
bin	97	0
bin	98	2
bin	99	1
bin	100	1
bin	101	1
bin	102	1
bin	103	1
bin	104	2
bin	105	0
bin	106	2
bin	107	1
bin	108	1
bin	109	1
bin	110	1
bin	111	1
bin	112	2
bin	113	0
bin	114	2
bin	115	1
bin	116	1
bin	117	0
bin	118	0
bin	119	0
bin	120	0
bin	121	0
bin	122	0
bin	123	0
bin	124	0
bin	125	0
bin	126	0
bin	127	0
bin	128	0
bin	129	0
bin	130	0
bin	131	0
bin	132	0
scalar SimphonyDHTNetwork.members[495] 	#packetsInTheNetwork 	57
statistic SimphonyDHTNetwork.members[495] 	"packets statistics"
field count 63
field mean 29.365079365079
field stddev 15.981139677658
field sum 1850
field sqrsum 70160
field min 0
field max 56
attr type  int
bin	-INF	0
bin	-28	0
bin	-27	0
bin	-26	0
bin	-25	0
bin	-24	0
bin	-23	0
bin	-22	0
bin	-21	0
bin	-20	0
bin	-19	0
bin	-18	0
bin	-17	0
bin	-16	0
bin	-15	0
bin	-14	0
bin	-13	0
bin	-12	0
bin	-11	0
bin	-10	0
bin	-9	0
bin	-8	0
bin	-7	0
bin	-6	0
bin	-5	0
bin	-4	0
bin	-3	0
bin	-2	0
bin	-1	0
bin	0	1
bin	1	0
bin	2	0
bin	3	1
bin	4	3
bin	5	0
bin	6	0
bin	7	1
bin	8	2
bin	9	0
bin	10	1
bin	11	1
bin	12	2
bin	13	1
bin	14	2
bin	15	0
bin	16	1
bin	17	2
bin	18	1
bin	19	1
bin	20	1
bin	21	1
bin	22	1
bin	23	2
bin	24	0
bin	25	2
bin	26	1
bin	27	2
bin	28	0
bin	29	1
bin	30	2
bin	31	1
bin	32	1
bin	33	1
bin	34	1
bin	35	1
bin	36	2
bin	37	0
bin	38	2
bin	39	1
bin	40	2
bin	41	0
bin	42	1
bin	43	2
bin	44	1
bin	45	1
bin	46	1
bin	47	2
bin	48	1
bin	49	1
bin	50	1
bin	51	2
bin	52	0
bin	53	0
bin	54	3
bin	55	1
bin	56	1
bin	57	0
bin	58	0
bin	59	0
bin	60	0
bin	61	0
bin	62	0
bin	63	0
bin	64	0
bin	65	0
bin	66	0
bin	67	0
bin	68	0
bin	69	0
bin	70	0
bin	71	0
bin	72	0
bin	73	0
bin	74	0
bin	75	0
bin	76	0
bin	77	0
bin	78	0
bin	79	0
bin	80	0
bin	81	0
bin	82	0
bin	83	0
bin	84	0
scalar SimphonyDHTNetwork.members[496] 	#packetsInTheNetwork 	29
statistic SimphonyDHTNetwork.members[496] 	"packets statistics"
field count 32
field mean 15.15625
field stddev 7.951909387262
field sum 485
field sqrsum 9311
field min 0
field max 28
attr type  int
bin	-INF	0
bin	-14	0
bin	-13	0
bin	-12	0
bin	-11	0
bin	-10	0
bin	-9	0
bin	-8	0
bin	-7	0
bin	-6	0
bin	-5	0
bin	-4	0
bin	-3	0
bin	-2	0
bin	-1	0
bin	0	1
bin	1	0
bin	2	0
bin	3	1
bin	4	3
bin	5	0
bin	6	0
bin	7	2
bin	8	0
bin	9	2
bin	10	1
bin	11	1
bin	12	2
bin	13	0
bin	14	2
bin	15	1
bin	16	1
bin	17	2
bin	18	0
bin	19	2
bin	20	1
bin	21	2
bin	22	1
bin	23	1
bin	24	2
bin	25	0
bin	26	2
bin	27	1
bin	28	1
bin	29	0
bin	30	0
bin	31	0
bin	32	0
bin	33	0
bin	34	0
bin	35	0
bin	36	0
bin	37	0
bin	38	0
bin	39	0
bin	40	0
bin	41	0
bin	42	0
scalar SimphonyDHTNetwork.members[497] 	#packetsInTheNetwork 	29
statistic SimphonyDHTNetwork.members[497] 	"packets statistics"
field count 31
field mean 14.935483870968
field stddev 7.9369829862947
field sum 463
field sqrsum 8805
field min 0
field max 28
attr type  int
bin	-INF	0
bin	-14	0
bin	-13	0
bin	-12	0
bin	-11	0
bin	-10	0
bin	-9	0
bin	-8	0
bin	-7	0
bin	-6	0
bin	-5	0
bin	-4	0
bin	-3	0
bin	-2	0
bin	-1	0
bin	0	1
bin	1	0
bin	2	0
bin	3	1
bin	4	3
bin	5	0
bin	6	0
bin	7	2
bin	8	0
bin	9	2
bin	10	1
bin	11	1
bin	12	2
bin	13	0
bin	14	2
bin	15	1
bin	16	1
bin	17	2
bin	18	0
bin	19	0
bin	20	3
bin	21	1
bin	22	2
bin	23	1
bin	24	1
bin	25	1
bin	26	1
bin	27	1
bin	28	1
bin	29	0
bin	30	0
bin	31	0
bin	32	0
bin	33	0
bin	34	0
bin	35	0
bin	36	0
bin	37	0
bin	38	0
bin	39	0
bin	40	0
bin	41	0
bin	42	0
scalar SimphonyDHTNetwork.members[498] 	#packetsInTheNetwork 	50
statistic SimphonyDHTNetwork.members[498] 	"packets statistics"
field count 54
field mean 25.222222222222
field stddev 13.864120472572
field sum 1362
field sqrsum 44540
field min 0
field max 49
attr type  int
bin	-INF	0
bin	-25	0
bin	-24	0
bin	-23	0
bin	-22	0
bin	-21	0
bin	-20	0
bin	-19	0
bin	-18	0
bin	-17	0
bin	-16	0
bin	-15	0
bin	-14	0
bin	-13	0
bin	-12	0
bin	-11	0
bin	-10	0
bin	-9	0
bin	-8	0
bin	-7	0
bin	-6	0
bin	-5	0
bin	-4	0
bin	-3	0
bin	-2	0
bin	-1	0
bin	0	1
bin	1	0
bin	2	0
bin	3	1
bin	4	3
bin	5	0
bin	6	0
bin	7	2
bin	8	0
bin	9	1
bin	10	2
bin	11	1
bin	12	1
bin	13	1
bin	14	2
bin	15	0
bin	16	2
bin	17	1
bin	18	1
bin	19	1
bin	20	2
bin	21	0
bin	22	2
bin	23	1
bin	24	2
bin	25	1
bin	26	1
bin	27	1
bin	28	2
bin	29	0
bin	30	0
bin	31	3
bin	32	1
bin	33	1
bin	34	1
bin	35	1
bin	36	1
bin	37	1
bin	38	1
bin	39	1
bin	40	2
bin	41	0
bin	42	0
bin	43	3
bin	44	1
bin	45	1
bin	46	1
bin	47	1
bin	48	1
bin	49	1
bin	50	0
bin	51	0
bin	52	0
bin	53	0
bin	54	0
bin	55	0
bin	56	0
bin	57	0
bin	58	0
bin	59	0
bin	60	0
bin	61	0
bin	62	0
bin	63	0
bin	64	0
bin	65	0
bin	66	0
bin	67	0
bin	68	0
bin	69	0
bin	70	0
bin	71	0
bin	72	0
bin	73	0
bin	74	0
scalar SimphonyDHTNetwork.members[499] 	#packetsInTheNetwork 	53
statistic SimphonyDHTNetwork.members[499] 	"packets statistics"
field count 59
field mean 26.779661016949
field stddev 14.792901136053
field sum 1580
field sqrsum 55004
field min 0
field max 52
attr type  int
bin	-INF	0
bin	-26	0
bin	-25	0
bin	-24	0
bin	-23	0
bin	-22	0
bin	-21	0
bin	-20	0
bin	-19	0
bin	-18	0
bin	-17	0
bin	-16	0
bin	-15	0
bin	-14	0
bin	-13	0
bin	-12	0
bin	-11	0
bin	-10	0
bin	-9	0
bin	-8	0
bin	-7	0
bin	-6	0
bin	-5	0
bin	-4	0
bin	-3	0
bin	-2	0
bin	-1	0
bin	0	1
bin	1	0
bin	2	0
bin	3	1
bin	4	3
bin	5	0
bin	6	0
bin	7	2
bin	8	0
bin	9	2
bin	10	1
bin	11	1
bin	12	2
bin	13	0
bin	14	2
bin	15	1
bin	16	1
bin	17	2
bin	18	0
bin	19	2
bin	20	1
bin	21	2
bin	22	1
bin	23	1
bin	24	2
bin	25	0
bin	26	2
bin	27	1
bin	28	1
bin	29	1
bin	30	1
bin	31	1
bin	32	2
bin	33	0
bin	34	2
bin	35	1
bin	36	1
bin	37	1
bin	38	1
bin	39	1
bin	40	2
bin	41	0
bin	42	2
bin	43	1
bin	44	1
bin	45	1
bin	46	1
bin	47	1
bin	48	2
bin	49	0
bin	50	2
bin	51	1
bin	52	1
bin	53	0
bin	54	0
bin	55	0
bin	56	0
bin	57	0
bin	58	0
bin	59	0
bin	60	0
bin	61	0
bin	62	0
bin	63	0
bin	64	0
bin	65	0
bin	66	0
bin	67	0
bin	68	0
bin	69	0
bin	70	0
bin	71	0
bin	72	0
bin	73	0
bin	74	0
bin	75	0
bin	76	0
bin	77	0
bin	78	0
scalar SimphonyDHTNetwork.members[500] 	#packetsInTheNetwork 	51
statistic SimphonyDHTNetwork.members[500] 	"packets statistics"
field count 55
field mean 25.781818181818
field stddev 14.199231733378
field sum 1418
field sqrsum 47446
field min 0
field max 50
attr type  int
bin	-INF	0
bin	-25	0
bin	-24	0
bin	-23	0
bin	-22	0
bin	-21	0
bin	-20	0
bin	-19	0
bin	-18	0
bin	-17	0
bin	-16	0
bin	-15	0
bin	-14	0
bin	-13	0
bin	-12	0
bin	-11	0
bin	-10	0
bin	-9	0
bin	-8	0
bin	-7	0
bin	-6	0
bin	-5	0
bin	-4	0
bin	-3	0
bin	-2	0
bin	-1	0
bin	0	1
bin	1	0
bin	2	0
bin	3	1
bin	4	3
bin	5	0
bin	6	0
bin	7	2
bin	8	0
bin	9	2
bin	10	1
bin	11	1
bin	12	2
bin	13	0
bin	14	0
bin	15	3
bin	16	1
bin	17	1
bin	18	2
bin	19	0
bin	20	0
bin	21	0
bin	22	4
bin	23	1
bin	24	2
bin	25	1
bin	26	1
bin	27	2
bin	28	0
bin	29	0
bin	30	0
bin	31	4
bin	32	1
bin	33	1
bin	34	1
bin	35	1
bin	36	1
bin	37	1
bin	38	1
bin	39	2
bin	40	0
bin	41	0
bin	42	0
bin	43	4
bin	44	1
bin	45	1
bin	46	1
bin	47	1
bin	48	1
bin	49	1
bin	50	1
bin	51	0
bin	52	0
bin	53	0
bin	54	0
bin	55	0
bin	56	0
bin	57	0
bin	58	0
bin	59	0
bin	60	0
bin	61	0
bin	62	0
bin	63	0
bin	64	0
bin	65	0
bin	66	0
bin	67	0
bin	68	0
bin	69	0
bin	70	0
bin	71	0
bin	72	0
bin	73	0
bin	74	0
bin	75	0
scalar SimphonyDHTNetwork.members[501] 	#packetsInTheNetwork 	31
statistic SimphonyDHTNetwork.members[501] 	"packets statistics"
field count 34
field mean 16.058823529412
field stddev 8.5064723182555
field sum 546
field sqrsum 11156
field min 0
field max 30
attr type  int
bin	-INF	0
bin	-15	0
bin	-14	0
bin	-13	0
bin	-12	0
bin	-11	0
bin	-10	0
bin	-9	0
bin	-8	0
bin	-7	0
bin	-6	0
bin	-5	0
bin	-4	0
bin	-3	0
bin	-2	0
bin	-1	0
bin	0	1
bin	1	0
bin	2	0
bin	3	1
bin	4	3
bin	5	0
bin	6	0
bin	7	2
bin	8	0
bin	9	2
bin	10	1
bin	11	1
bin	12	2
bin	13	0
bin	14	2
bin	15	1
bin	16	1
bin	17	2
bin	18	0
bin	19	2
bin	20	1
bin	21	2
bin	22	1
bin	23	1
bin	24	1
bin	25	1
bin	26	2
bin	27	0
bin	28	2
bin	29	1
bin	30	1
bin	31	0
bin	32	0
bin	33	0
bin	34	0
bin	35	0
bin	36	0
bin	37	0
bin	38	0
bin	39	0
bin	40	0
bin	41	0
bin	42	0
bin	43	0
bin	44	0
bin	45	0
scalar SimphonyDHTNetwork.members[502] 	#packetsInTheNetwork 	63
statistic SimphonyDHTNetwork.members[502] 	"packets statistics"
field count 68
field mean 31.705882352941
field stddev 17.676241600529
field sum 2156
field sqrsum 89292
field min 0
field max 62
attr type  int
bin	-INF	0
bin	-31	0
bin	-30	0
bin	-29	0
bin	-28	0
bin	-27	0
bin	-26	0
bin	-25	0
bin	-24	0
bin	-23	0
bin	-22	0
bin	-21	0
bin	-20	0
bin	-19	0
bin	-18	0
bin	-17	0
bin	-16	0
bin	-15	0
bin	-14	0
bin	-13	0
bin	-12	0
bin	-11	0
bin	-10	0
bin	-9	0
bin	-8	0
bin	-7	0
bin	-6	0
bin	-5	0
bin	-4	0
bin	-3	0
bin	-2	0
bin	-1	0
bin	0	1
bin	1	0
bin	2	0
bin	3	1
bin	4	3
bin	5	0
bin	6	0
bin	7	2
bin	8	0
bin	9	1
bin	10	2
bin	11	1
bin	12	1
bin	13	2
bin	14	0
bin	15	0
bin	16	3
bin	17	1
bin	18	1
bin	19	2
bin	20	0
bin	21	0
bin	22	3
bin	23	1
bin	24	1
bin	25	2
bin	26	1
bin	27	1
bin	28	1
bin	29	2
bin	30	0
bin	31	0
bin	32	0
bin	33	4
bin	34	1
bin	35	1
bin	36	1
bin	37	1
bin	38	1
bin	39	2
bin	40	0
bin	41	0
bin	42	0
bin	43	4
bin	44	1
bin	45	1
bin	46	1
bin	47	1
bin	48	1
bin	49	1
bin	50	1
bin	51	2
bin	52	0
bin	53	0
bin	54	0
bin	55	4
bin	56	1
bin	57	1
bin	58	1
bin	59	1
bin	60	1
bin	61	1
bin	62	1
bin	63	0
bin	64	0
bin	65	0
bin	66	0
bin	67	0
bin	68	0
bin	69	0
bin	70	0
bin	71	0
bin	72	0
bin	73	0
bin	74	0
bin	75	0
bin	76	0
bin	77	0
bin	78	0
bin	79	0
bin	80	0
bin	81	0
bin	82	0
bin	83	0
bin	84	0
bin	85	0
bin	86	0
bin	87	0
bin	88	0
bin	89	0
bin	90	0
bin	91	0
bin	92	0
bin	93	0
scalar SimphonyDHTNetwork.members[503] 	#packetsInTheNetwork 	75
statistic SimphonyDHTNetwork.members[503] 	"packets statistics"
field count 82
field mean 37.69512195122
field stddev 21.383441744704
field sum 3091
field sqrsum 153553
field min 0
field max 74
attr type  int
bin	-INF	0
bin	-37	0
bin	-36	0
bin	-35	0
bin	-34	0
bin	-33	0
bin	-32	0
bin	-31	0
bin	-30	0
bin	-29	0
bin	-28	0
bin	-27	0
bin	-26	0
bin	-25	0
bin	-24	0
bin	-23	0
bin	-22	0
bin	-21	0
bin	-20	0
bin	-19	0
bin	-18	0
bin	-17	0
bin	-16	0
bin	-15	0
bin	-14	0
bin	-13	0
bin	-12	0
bin	-11	0
bin	-10	0
bin	-9	0
bin	-8	0
bin	-7	0
bin	-6	0
bin	-5	0
bin	-4	0
bin	-3	0
bin	-2	0
bin	-1	0
bin	0	1
bin	1	0
bin	2	0
bin	3	1
bin	4	3
bin	5	0
bin	6	0
bin	7	2
bin	8	0
bin	9	2
bin	10	1
bin	11	1
bin	12	2
bin	13	0
bin	14	2
bin	15	1
bin	16	1
bin	17	2
bin	18	0
bin	19	0
bin	20	3
bin	21	1
bin	22	2
bin	23	1
bin	24	1
bin	25	2
bin	26	0
bin	27	0
bin	28	3
bin	29	1
bin	30	1
bin	31	1
bin	32	1
bin	33	1
bin	34	1
bin	35	1
bin	36	1
bin	37	1
bin	38	1
bin	39	2
bin	40	0
bin	41	0
bin	42	3
bin	43	1
bin	44	1
bin	45	1
bin	46	1
bin	47	1
bin	48	1
bin	49	1
bin	50	1
bin	51	2
bin	52	0
bin	53	0
bin	54	3
bin	55	1
bin	56	1
bin	57	1
bin	58	1
bin	59	1
bin	60	2
bin	61	0
bin	62	0
bin	63	3
bin	64	1
bin	65	1
bin	66	1
bin	67	1
bin	68	1
bin	69	2
bin	70	0
bin	71	0
bin	72	3
bin	73	1
bin	74	1
bin	75	0
bin	76	0
bin	77	0
bin	78	0
bin	79	0
bin	80	0
bin	81	0
bin	82	0
bin	83	0
bin	84	0
bin	85	0
bin	86	0
bin	87	0
bin	88	0
bin	89	0
bin	90	0
bin	91	0
bin	92	0
bin	93	0
bin	94	0
bin	95	0
bin	96	0
bin	97	0
bin	98	0
bin	99	0
bin	100	0
bin	101	0
bin	102	0
bin	103	0
bin	104	0
bin	105	0
bin	106	0
bin	107	0
bin	108	0
bin	109	0
bin	110	0
bin	111	0
scalar SimphonyDHTNetwork.members[504] 	#packetsInTheNetwork 	71
statistic SimphonyDHTNetwork.members[504] 	"packets statistics"
field count 78
field mean 35.935897435897
field stddev 19.962523162224
field sum 2803
field sqrsum 131413
field min 0
field max 70
attr type  int
bin	-INF	0
bin	-35	0
bin	-34	0
bin	-33	0
bin	-32	0
bin	-31	0
bin	-30	0
bin	-29	0
bin	-28	0
bin	-27	0
bin	-26	0
bin	-25	0
bin	-24	0
bin	-23	0
bin	-22	0
bin	-21	0
bin	-20	0
bin	-19	0
bin	-18	0
bin	-17	0
bin	-16	0
bin	-15	0
bin	-14	0
bin	-13	0
bin	-12	0
bin	-11	0
bin	-10	0
bin	-9	0
bin	-8	0
bin	-7	0
bin	-6	0
bin	-5	0
bin	-4	0
bin	-3	0
bin	-2	0
bin	-1	0
bin	0	1
bin	1	0
bin	2	0
bin	3	1
bin	4	3
bin	5	0
bin	6	0
bin	7	1
bin	8	2
bin	9	0
bin	10	1
bin	11	2
bin	12	1
bin	13	2
bin	14	0
bin	15	1
bin	16	2
bin	17	1
bin	18	1
bin	19	2
bin	20	0
bin	21	2
bin	22	1
bin	23	1
bin	24	1
bin	25	1
bin	26	1
bin	27	2
bin	28	0
bin	29	2
bin	30	1
bin	31	1
bin	32	1
bin	33	1
bin	34	1
bin	35	2
bin	36	0
bin	37	0
bin	38	3
bin	39	1
bin	40	2
bin	41	1
bin	42	1
bin	43	1
bin	44	1
bin	45	1
bin	46	2
bin	47	0
bin	48	0
bin	49	1
bin	50	3
bin	51	1
bin	52	2
bin	53	0
bin	54	0
bin	55	1
bin	56	3
bin	57	1
bin	58	1
bin	59	1
bin	60	1
bin	61	1
bin	62	2
bin	63	0
bin	64	0
bin	65	3
bin	66	1
bin	67	1
bin	68	1
bin	69	1
bin	70	1
bin	71	0
bin	72	0
bin	73	0
bin	74	0
bin	75	0
bin	76	0
bin	77	0
bin	78	0
bin	79	0
bin	80	0
bin	81	0
bin	82	0
bin	83	0
bin	84	0
bin	85	0
bin	86	0
bin	87	0
bin	88	0
bin	89	0
bin	90	0
bin	91	0
bin	92	0
bin	93	0
bin	94	0
bin	95	0
bin	96	0
bin	97	0
bin	98	0
bin	99	0
bin	100	0
bin	101	0
bin	102	0
bin	103	0
bin	104	0
bin	105	0
scalar SimphonyDHTNetwork.members[505] 	#packetsInTheNetwork 	38
statistic SimphonyDHTNetwork.members[505] 	"packets statistics"
field count 42
field mean 19.47619047619
field stddev 10.502585268813
field sum 818
field sqrsum 20454
field min 0
field max 37
attr type  int
bin	-INF	0
bin	-19	0
bin	-18	0
bin	-17	0
bin	-16	0
bin	-15	0
bin	-14	0
bin	-13	0
bin	-12	0
bin	-11	0
bin	-10	0
bin	-9	0
bin	-8	0
bin	-7	0
bin	-6	0
bin	-5	0
bin	-4	0
bin	-3	0
bin	-2	0
bin	-1	0
bin	0	1
bin	1	0
bin	2	0
bin	3	1
bin	4	3
bin	5	0
bin	6	0
bin	7	2
bin	8	0
bin	9	2
bin	10	1
bin	11	1
bin	12	2
bin	13	0
bin	14	2
bin	15	1
bin	16	1
bin	17	2
bin	18	0
bin	19	2
bin	20	1
bin	21	2
bin	22	1
bin	23	2
bin	24	0
bin	25	0
bin	26	3
bin	27	1
bin	28	1
bin	29	1
bin	30	1
bin	31	1
bin	32	2
bin	33	0
bin	34	0
bin	35	3
bin	36	1
bin	37	1
bin	38	0
bin	39	0
bin	40	0
bin	41	0
bin	42	0
bin	43	0
bin	44	0
bin	45	0
bin	46	0
bin	47	0
bin	48	0
bin	49	0
bin	50	0
bin	51	0
bin	52	0
bin	53	0
bin	54	0
bin	55	0
bin	56	0
scalar SimphonyDHTNetwork.members[506] 	#packetsInTheNetwork 	23
statistic SimphonyDHTNetwork.members[506] 	"packets statistics"
field count 25
field mean 12.56
field stddev 6.7273075347175
field sum 314
field sqrsum 5030
field min 0
field max 23
attr type  int
bin	-INF	0
bin	-12	0
bin	-11	0
bin	-10	0
bin	-9	0
bin	-8	0
bin	-7	0
bin	-6	0
bin	-5	0
bin	-4	0
bin	-3	0
bin	-2	0
bin	-1	0
bin	0	1
bin	1	0
bin	2	0
bin	3	1
bin	4	3
bin	5	0
bin	6	0
bin	7	2
bin	8	0
bin	9	2
bin	10	1
bin	11	1
bin	12	2
bin	13	0
bin	14	0
bin	15	3
bin	16	1
bin	17	1
bin	18	2
bin	19	0
bin	20	0
bin	21	3
bin	22	1
bin	23	1
bin	24	0
bin	25	0
bin	26	0
bin	27	0
bin	28	0
bin	29	0
bin	30	0
bin	31	0
bin	32	0
bin	33	0
bin	34	0
bin	35	0
scalar SimphonyDHTNetwork.members[507] 	#packetsInTheNetwork 	46
statistic SimphonyDHTNetwork.members[507] 	"packets statistics"
field count 50
field mean 23.7
field stddev 13.041926112913
field sum 1185
field sqrsum 36419
field min 0
field max 45
attr type  int
bin	-INF	0
bin	-23	0
bin	-22	0
bin	-21	0
bin	-20	0
bin	-19	0
bin	-18	0
bin	-17	0
bin	-16	0
bin	-15	0
bin	-14	0
bin	-13	0
bin	-12	0
bin	-11	0
bin	-10	0
bin	-9	0
bin	-8	0
bin	-7	0
bin	-6	0
bin	-5	0
bin	-4	0
bin	-3	0
bin	-2	0
bin	-1	0
bin	0	1
bin	1	0
bin	2	0
bin	3	1
bin	4	3
bin	5	0
bin	6	0
bin	7	2
bin	8	0
bin	9	2
bin	10	1
bin	11	1
bin	12	2
bin	13	0
bin	14	0
bin	15	3
bin	16	1
bin	17	1
bin	18	2
bin	19	0
bin	20	0
bin	21	0
bin	22	4
bin	23	1
bin	24	2
bin	25	1
bin	26	1
bin	27	2
bin	28	0
bin	29	0
bin	30	0
bin	31	0
bin	32	5
bin	33	1
bin	34	1
bin	35	1
bin	36	1
bin	37	1
bin	38	2
bin	39	0
bin	40	0
bin	41	0
bin	42	0
bin	43	5
bin	44	1
bin	45	1
bin	46	0
bin	47	0
bin	48	0
bin	49	0
bin	50	0
bin	51	0
bin	52	0
bin	53	0
bin	54	0
bin	55	0
bin	56	0
bin	57	0
bin	58	0
bin	59	0
bin	60	0
bin	61	0
bin	62	0
bin	63	0
bin	64	0
bin	65	0
bin	66	0
bin	67	0
bin	68	0
scalar SimphonyDHTNetwork.members[508] 	#packetsInTheNetwork 	27
statistic SimphonyDHTNetwork.members[508] 	"packets statistics"
field count 29
field mean 14.689655172414
field stddev 7.9691523490621
field sum 426
field sqrsum 8036
field min 0
field max 27
attr type  int
bin	-INF	0
bin	-14	0
bin	-13	0
bin	-12	0
bin	-11	0
bin	-10	0
bin	-9	0
bin	-8	0
bin	-7	0
bin	-6	0
bin	-5	0
bin	-4	0
bin	-3	0
bin	-2	0
bin	-1	0
bin	0	1
bin	1	0
bin	2	0
bin	3	1
bin	4	3
bin	5	0
bin	6	0
bin	7	2
bin	8	0
bin	9	1
bin	10	2
bin	11	1
bin	12	1
bin	13	1
bin	14	1
bin	15	2
bin	16	0
bin	17	0
bin	18	3
bin	19	1
bin	20	1
bin	21	2
bin	22	0
bin	23	0
bin	24	0
bin	25	4
bin	26	1
bin	27	1
bin	28	0
bin	29	0
bin	30	0
bin	31	0
bin	32	0
bin	33	0
bin	34	0
bin	35	0
bin	36	0
bin	37	0
bin	38	0
bin	39	0
bin	40	0
bin	41	0
scalar SimphonyDHTNetwork.members[509] 	#packetsInTheNetwork 	23
statistic SimphonyDHTNetwork.members[509] 	"packets statistics"
field count 25
field mean 12.28
field stddev 6.4389440128021
field sum 307
field sqrsum 4765
field min 0
field max 22
attr type  int
bin	-INF	0
bin	-11	0
bin	-10	0
bin	-9	0
bin	-8	0
bin	-7	0
bin	-6	0
bin	-5	0
bin	-4	0
bin	-3	0
bin	-2	0
bin	-1	0
bin	0	1
bin	1	0
bin	2	0
bin	3	1
bin	4	3
bin	5	0
bin	6	0
bin	7	2
bin	8	0
bin	9	2
bin	10	1
bin	11	1
bin	12	2
bin	13	0
bin	14	2
bin	15	1
bin	16	1
bin	17	2
bin	18	0
bin	19	2
bin	20	1
bin	21	2
bin	22	1
bin	23	0
bin	24	0
bin	25	0
bin	26	0
bin	27	0
bin	28	0
bin	29	0
bin	30	0
bin	31	0
bin	32	0
bin	33	0
scalar SimphonyDHTNetwork.members[510] 	#packetsInTheNetwork 	26
statistic SimphonyDHTNetwork.members[510] 	"packets statistics"
field count 28
field mean 14.142857142857
field stddev 7.5997772175646
field sum 396
field sqrsum 7160
field min 0
field max 26
attr type  int
bin	-INF	0
bin	-13	0
bin	-12	0
bin	-11	0
bin	-10	0
bin	-9	0
bin	-8	0
bin	-7	0
bin	-6	0
bin	-5	0
bin	-4	0
bin	-3	0
bin	-2	0
bin	-1	0
bin	0	1
bin	1	0
bin	2	0
bin	3	1
bin	4	3
bin	5	0
bin	6	0
bin	7	2
bin	8	0
bin	9	1
bin	10	2
bin	11	1
bin	12	1
bin	13	1
bin	14	1
bin	15	2
bin	16	0
bin	17	0
bin	18	3
bin	19	1
bin	20	1
bin	21	2
bin	22	0
bin	23	0
bin	24	3
bin	25	1
bin	26	1
bin	27	0
bin	28	0
bin	29	0
bin	30	0
bin	31	0
bin	32	0
bin	33	0
bin	34	0
bin	35	0
bin	36	0
bin	37	0
bin	38	0
bin	39	0
scalar SimphonyDHTNetwork.members[511] 	#packetsInTheNetwork 	32
statistic SimphonyDHTNetwork.members[511] 	"packets statistics"
field count 34
field mean 16.5
field stddev 8.8257543243589
field sum 561
field sqrsum 11827
field min 0
field max 31
attr type  int
bin	-INF	0
bin	-16	0
bin	-15	0
bin	-14	0
bin	-13	0
bin	-12	0
bin	-11	0
bin	-10	0
bin	-9	0
bin	-8	0
bin	-7	0
bin	-6	0
bin	-5	0
bin	-4	0
bin	-3	0
bin	-2	0
bin	-1	0
bin	0	1
bin	1	0
bin	2	0
bin	3	1
bin	4	3
bin	5	0
bin	6	0
bin	7	2
bin	8	0
bin	9	2
bin	10	1
bin	11	1
bin	12	2
bin	13	0
bin	14	0
bin	15	3
bin	16	1
bin	17	1
bin	18	2
bin	19	0
bin	20	0
bin	21	0
bin	22	4
bin	23	1
bin	24	2
bin	25	1
bin	26	1
bin	27	1
bin	28	1
bin	29	1
bin	30	1
bin	31	1
bin	32	0
bin	33	0
bin	34	0
bin	35	0
bin	36	0
bin	37	0
bin	38	0
bin	39	0
bin	40	0
bin	41	0
bin	42	0
bin	43	0
bin	44	0
bin	45	0
bin	46	0
bin	47	0
