version 2
run allAtOnce-2-20130122-16:51:39-9581
attr configname allAtOnce
attr datetime 20130122-16:51:39
attr experiment allAtOnce
attr inifile omnetpp.ini
attr iterationvars "$0=128, $1=100"
attr iterationvars2 "$0=128, $1=100, $repetition=2"
attr measurement "$0=128, $1=100"
attr network SimphonyDHTNetwork
attr processid 9581
attr repetition 2
attr replication #2
attr resultdir results
attr runnumber 2
attr seedset 2

scalar SimphonyDHTNetwork.members[0] 	#packetsInTheNetwork 	446
statistic SimphonyDHTNetwork.members[0] 	"packets statistics"
field count 480
field mean 222.86458333333
field stddev 129.04078588391
field sum 106975
field sqrsum 31817019
field min 0
field max 445
attr type  int
bin	-INF	0
bin	-46	0
bin	-45	0
bin	-44	0
bin	-43	0
bin	-42	0
bin	-41	0
bin	-40	0
bin	-39	0
bin	-38	0
bin	-37	0
bin	-36	0
bin	-35	0
bin	-34	0
bin	-33	0
bin	-32	0
bin	-31	0
bin	-30	0
bin	-29	0
bin	-28	0
bin	-27	0
bin	-26	0
bin	-25	0
bin	-24	0
bin	-23	0
bin	-22	0
bin	-21	0
bin	-20	0
bin	-19	0
bin	-18	0
bin	-17	0
bin	-16	0
bin	-15	0
bin	-14	0
bin	-13	0
bin	-12	0
bin	-11	0
bin	-10	0
bin	-9	0
bin	-8	0
bin	-7	0
bin	-6	0
bin	-5	0
bin	-4	0
bin	-3	0
bin	-2	0
bin	-1	0
bin	0	1
bin	1	1
bin	2	1
bin	3	1
bin	4	1
bin	5	2
bin	6	0
bin	7	0
bin	8	0
bin	9	0
bin	10	5
bin	11	1
bin	12	1
bin	13	1
bin	14	1
bin	15	1
bin	16	1
bin	17	1
bin	18	1
bin	19	1
bin	20	1
bin	21	1
bin	22	1
bin	23	2
bin	24	0
bin	25	0
bin	26	0
bin	27	0
bin	28	5
bin	29	1
bin	30	1
bin	31	1
bin	32	1
bin	33	2
bin	34	0
bin	35	0
bin	36	0
bin	37	0
bin	38	5
bin	39	1
bin	40	1
bin	41	1
bin	42	1
bin	43	1
bin	44	1
bin	45	1
bin	46	1
bin	47	1
bin	48	2
bin	49	0
bin	50	0
bin	51	0
bin	52	0
bin	53	5
bin	54	1
bin	55	1
bin	56	1
bin	57	1
bin	58	1
bin	59	1
bin	60	1
bin	61	2
bin	62	0
bin	63	0
bin	64	0
bin	65	0
bin	66	5
bin	67	1
bin	68	1
bin	69	1
bin	70	1
bin	71	1
bin	72	1
bin	73	1
bin	74	1
bin	75	1
bin	76	2
bin	77	0
bin	78	0
bin	79	0
bin	80	0
bin	81	5
bin	82	1
bin	83	1
bin	84	1
bin	85	1
bin	86	1
bin	87	1
bin	88	2
bin	89	1
bin	90	2
bin	91	2
bin	92	1
bin	93	1
bin	94	1
bin	95	1
bin	96	1
bin	97	1
bin	98	1
bin	99	1
bin	100	1
bin	101	1
bin	102	2
bin	103	0
bin	104	0
bin	105	0
bin	106	0
bin	107	5
bin	108	1
bin	109	1
bin	110	1
bin	111	1
bin	112	1
bin	113	1
bin	114	1
bin	115	1
bin	116	2
bin	117	0
bin	118	0
bin	119	0
bin	120	0
bin	121	5
bin	122	1
bin	123	1
bin	124	1
bin	125	1
bin	126	1
bin	127	1
bin	128	1
bin	129	1
bin	130	1
bin	131	2
bin	132	0
bin	133	0
bin	134	0
bin	135	0
bin	136	5
bin	137	331
scalar SimphonyDHTNetwork.members[1] 	#packetsInTheNetwork 	625
statistic SimphonyDHTNetwork.members[1] 	"packets statistics"
field count 689
field mean 314.23367198839
field stddev 179.99448222651
field sum 216507
field sqrsum 90323623
field min 0
field max 624
attr type  int
bin	-INF	0
bin	-48	0
bin	-47	0
bin	-46	0
bin	-45	0
bin	-44	0
bin	-43	0
bin	-42	0
bin	-41	0
bin	-40	0
bin	-39	0
bin	-38	0
bin	-37	0
bin	-36	0
bin	-35	0
bin	-34	0
bin	-33	0
bin	-32	0
bin	-31	0
bin	-30	0
bin	-29	0
bin	-28	0
bin	-27	0
bin	-26	0
bin	-25	0
bin	-24	0
bin	-23	0
bin	-22	0
bin	-21	0
bin	-20	0
bin	-19	0
bin	-18	0
bin	-17	0
bin	-16	0
bin	-15	0
bin	-14	0
bin	-13	0
bin	-12	0
bin	-11	0
bin	-10	0
bin	-9	0
bin	-8	0
bin	-7	0
bin	-6	0
bin	-5	0
bin	-4	0
bin	-3	0
bin	-2	0
bin	-1	0
bin	0	1
bin	1	1
bin	2	1
bin	3	2
bin	4	0
bin	5	0
bin	6	0
bin	7	0
bin	8	5
bin	9	1
bin	10	1
bin	11	1
bin	12	1
bin	13	1
bin	14	1
bin	15	1
bin	16	1
bin	17	2
bin	18	1
bin	19	1
bin	20	1
bin	21	1
bin	22	1
bin	23	1
bin	24	2
bin	25	0
bin	26	0
bin	27	0
bin	28	0
bin	29	0
bin	30	6
bin	31	1
bin	32	1
bin	33	1
bin	34	1
bin	35	1
bin	36	1
bin	37	1
bin	38	1
bin	39	1
bin	40	1
bin	41	1
bin	42	1
bin	43	1
bin	44	2
bin	45	1
bin	46	1
bin	47	2
bin	48	0
bin	49	0
bin	50	0
bin	51	0
bin	52	0
bin	53	0
bin	54	7
bin	55	1
bin	56	1
bin	57	1
bin	58	1
bin	59	1
bin	60	2
bin	61	1
bin	62	1
bin	63	1
bin	64	1
bin	65	2
bin	66	0
bin	67	0
bin	68	0
bin	69	0
bin	70	0
bin	71	0
bin	72	0
bin	73	8
bin	74	1
bin	75	1
bin	76	1
bin	77	1
bin	78	1
bin	79	1
bin	80	1
bin	81	1
bin	82	1
bin	83	1
bin	84	1
bin	85	1
bin	86	1
bin	87	2
bin	88	0
bin	89	0
bin	90	0
bin	91	0
bin	92	0
bin	93	0
bin	94	0
bin	95	8
bin	96	1
bin	97	1
bin	98	1
bin	99	1
bin	100	1
bin	101	1
bin	102	1
bin	103	1
bin	104	1
bin	105	2
bin	106	0
bin	107	0
bin	108	0
bin	109	0
bin	110	0
bin	111	0
bin	112	0
bin	113	8
bin	114	1
bin	115	1
bin	116	1
bin	117	1
bin	118	1
bin	119	1
bin	120	1
bin	121	1
bin	122	1
bin	123	1
bin	124	1
bin	125	1
bin	126	1
bin	127	1
bin	128	1
bin	129	1
bin	130	1
bin	131	1
bin	132	1
bin	133	1
bin	134	1
bin	135	2
bin	136	1
bin	137	1
bin	138	1
bin	139	1
bin	140	1
bin	141	1
bin	142	1
bin	143	536
scalar SimphonyDHTNetwork.members[2] 	#packetsInTheNetwork 	528
statistic SimphonyDHTNetwork.members[2] 	"packets statistics"
field count 577
field mean 264.38648180243
field stddev 152.89287289089
field sum 152551
field sqrsum 53797131
field min 0
field max 527
attr type  int
bin	-INF	0
bin	-47	0
bin	-46	0
bin	-45	0
bin	-44	0
bin	-43	0
bin	-42	0
bin	-41	0
bin	-40	0
bin	-39	0
bin	-38	0
bin	-37	0
bin	-36	0
bin	-35	0
bin	-34	0
bin	-33	0
bin	-32	0
bin	-31	0
bin	-30	0
bin	-29	0
bin	-28	0
bin	-27	0
bin	-26	0
bin	-25	0
bin	-24	0
bin	-23	0
bin	-22	0
bin	-21	0
bin	-20	0
bin	-19	0
bin	-18	0
bin	-17	0
bin	-16	0
bin	-15	0
bin	-14	0
bin	-13	0
bin	-12	0
bin	-11	0
bin	-10	0
bin	-9	0
bin	-8	0
bin	-7	0
bin	-6	0
bin	-5	0
bin	-4	0
bin	-3	0
bin	-2	0
bin	-1	0
bin	0	1
bin	1	1
bin	2	1
bin	3	2
bin	4	1
bin	5	1
bin	6	1
bin	7	1
bin	8	1
bin	9	1
bin	10	1
bin	11	1
bin	12	1
bin	13	2
bin	14	0
bin	15	0
bin	16	0
bin	17	0
bin	18	0
bin	19	6
bin	20	1
bin	21	1
bin	22	1
bin	23	1
bin	24	1
bin	25	1
bin	26	2
bin	27	0
bin	28	0
bin	29	0
bin	30	0
bin	31	0
bin	32	6
bin	33	1
bin	34	1
bin	35	1
bin	36	1
bin	37	1
bin	38	1
bin	39	1
bin	40	1
bin	41	1
bin	42	1
bin	43	2
bin	44	0
bin	45	0
bin	46	0
bin	47	0
bin	48	0
bin	49	6
bin	50	1
bin	51	1
bin	52	1
bin	53	1
bin	54	1
bin	55	2
bin	56	0
bin	57	0
bin	58	0
bin	59	0
bin	60	0
bin	61	6
bin	62	1
bin	63	1
bin	64	1
bin	65	1
bin	66	2
bin	67	0
bin	68	0
bin	69	0
bin	70	0
bin	71	0
bin	72	6
bin	73	1
bin	74	1
bin	75	1
bin	76	1
bin	77	1
bin	78	1
bin	79	1
bin	80	2
bin	81	1
bin	82	1
bin	83	1
bin	84	1
bin	85	1
bin	86	1
bin	87	2
bin	88	0
bin	89	0
bin	90	0
bin	91	0
bin	92	0
bin	93	0
bin	94	7
bin	95	1
bin	96	1
bin	97	1
bin	98	1
bin	99	1
bin	100	1
bin	101	1
bin	102	1
bin	103	1
bin	104	2
bin	105	0
bin	106	0
bin	107	0
bin	108	0
bin	109	0
bin	110	0
bin	111	7
bin	112	1
bin	113	1
bin	114	1
bin	115	1
bin	116	1
bin	117	2
bin	118	1
bin	119	1
bin	120	1
bin	121	1
bin	122	1
bin	123	1
bin	124	1
bin	125	1
bin	126	1
bin	127	2
bin	128	1
bin	129	1
bin	130	1
bin	131	1
bin	132	1
bin	133	1
bin	134	1
bin	135	1
bin	136	2
bin	137	1
bin	138	1
bin	139	1
bin	140	1
bin	141	424
scalar SimphonyDHTNetwork.members[3] 	#packetsInTheNetwork 	735
statistic SimphonyDHTNetwork.members[3] 	"packets statistics"
field count 791
field mean 366.54108723135
field stddev 212.50347551786
field sum 289934
field sqrsum 141947328
field min 0
field max 734
attr type  int
bin	-INF	0
bin	-46	0
bin	-45	0
bin	-44	0
bin	-43	0
bin	-42	0
bin	-41	0
bin	-40	0
bin	-39	0
bin	-38	0
bin	-37	0
bin	-36	0
bin	-35	0
bin	-34	0
bin	-33	0
bin	-32	0
bin	-31	0
bin	-30	0
bin	-29	0
bin	-28	0
bin	-27	0
bin	-26	0
bin	-25	0
bin	-24	0
bin	-23	0
bin	-22	0
bin	-21	0
bin	-20	0
bin	-19	0
bin	-18	0
bin	-17	0
bin	-16	0
bin	-15	0
bin	-14	0
bin	-13	0
bin	-12	0
bin	-11	0
bin	-10	0
bin	-9	0
bin	-8	0
bin	-7	0
bin	-6	0
bin	-5	0
bin	-4	0
bin	-3	0
bin	-2	0
bin	-1	0
bin	0	1
bin	1	1
bin	2	1
bin	3	2
bin	4	0
bin	5	0
bin	6	0
bin	7	0
bin	8	5
bin	9	1
bin	10	1
bin	11	1
bin	12	1
bin	13	1
bin	14	1
bin	15	1
bin	16	1
bin	17	2
bin	18	0
bin	19	0
bin	20	0
bin	21	0
bin	22	5
bin	23	1
bin	24	1
bin	25	1
bin	26	1
bin	27	1
bin	28	1
bin	29	1
bin	30	2
bin	31	0
bin	32	0
bin	33	0
bin	34	0
bin	35	5
bin	36	1
bin	37	1
bin	38	1
bin	39	1
bin	40	1
bin	41	1
bin	42	1
bin	43	1
bin	44	1
bin	45	1
bin	46	1
bin	47	1
bin	48	1
bin	49	2
bin	50	0
bin	51	0
bin	52	0
bin	53	0
bin	54	5
bin	55	1
bin	56	1
bin	57	1
bin	58	1
bin	59	1
bin	60	1
bin	61	2
bin	62	0
bin	63	0
bin	64	0
bin	65	0
bin	66	5
bin	67	1
bin	68	1
bin	69	1
bin	70	1
bin	71	1
bin	72	1
bin	73	2
bin	74	0
bin	75	0
bin	76	0
bin	77	0
bin	78	5
bin	79	1
bin	80	1
bin	81	1
bin	82	1
bin	83	1
bin	84	2
bin	85	0
bin	86	0
bin	87	0
bin	88	0
bin	89	5
bin	90	1
bin	91	1
bin	92	1
bin	93	1
bin	94	1
bin	95	1
bin	96	1
bin	97	1
bin	98	1
bin	99	1
bin	100	1
bin	101	1
bin	102	2
bin	103	0
bin	104	0
bin	105	0
bin	106	0
bin	107	5
bin	108	1
bin	109	1
bin	110	1
bin	111	1
bin	112	2
bin	113	0
bin	114	0
bin	115	0
bin	116	0
bin	117	5
bin	118	1
bin	119	1
bin	120	1
bin	121	2
bin	122	1
bin	123	1
bin	124	1
bin	125	2
bin	126	2
bin	127	1
bin	128	1
bin	129	2
bin	130	0
bin	131	0
bin	132	0
bin	133	0
bin	134	0
bin	135	6
bin	136	1
bin	137	1
bin	138	640
scalar SimphonyDHTNetwork.members[4] 	#packetsInTheNetwork 	681
statistic SimphonyDHTNetwork.members[4] 	"packets statistics"
field count 750
field mean 341.51466666667
field stddev 195.87098741221
field sum 256136
field sqrsum 116209918
field min 0
field max 680
attr type  int
bin	-INF	0
bin	-45	0
bin	-44	0
bin	-43	0
bin	-42	0
bin	-41	0
bin	-40	0
bin	-39	0
bin	-38	0
bin	-37	0
bin	-36	0
bin	-35	0
bin	-34	0
bin	-33	0
bin	-32	0
bin	-31	0
bin	-30	0
bin	-29	0
bin	-28	0
bin	-27	0
bin	-26	0
bin	-25	0
bin	-24	0
bin	-23	0
bin	-22	0
bin	-21	0
bin	-20	0
bin	-19	0
bin	-18	0
bin	-17	0
bin	-16	0
bin	-15	0
bin	-14	0
bin	-13	0
bin	-12	0
bin	-11	0
bin	-10	0
bin	-9	0
bin	-8	0
bin	-7	0
bin	-6	0
bin	-5	0
bin	-4	0
bin	-3	0
bin	-2	0
bin	-1	0
bin	0	1
bin	1	1
bin	2	1
bin	3	2
bin	4	0
bin	5	0
bin	6	0
bin	7	0
bin	8	5
bin	9	1
bin	10	1
bin	11	1
bin	12	1
bin	13	1
bin	14	1
bin	15	2
bin	16	1
bin	17	1
bin	18	2
bin	19	0
bin	20	0
bin	21	0
bin	22	0
bin	23	0
bin	24	6
bin	25	1
bin	26	1
bin	27	1
bin	28	1
bin	29	1
bin	30	2
bin	31	1
bin	32	1
bin	33	2
bin	34	0
bin	35	0
bin	36	0
bin	37	0
bin	38	0
bin	39	0
bin	40	7
bin	41	1
bin	42	1
bin	43	1
bin	44	1
bin	45	2
bin	46	0
bin	47	0
bin	48	0
bin	49	0
bin	50	0
bin	51	0
bin	52	7
bin	53	1
bin	54	1
bin	55	1
bin	56	1
bin	57	1
bin	58	1
bin	59	1
bin	60	1
bin	61	1
bin	62	1
bin	63	1
bin	64	2
bin	65	0
bin	66	0
bin	67	0
bin	68	0
bin	69	0
bin	70	0
bin	71	7
bin	72	1
bin	73	1
bin	74	1
bin	75	1
bin	76	2
bin	77	1
bin	78	1
bin	79	2
bin	80	0
bin	81	0
bin	82	0
bin	83	0
bin	84	0
bin	85	0
bin	86	0
bin	87	8
bin	88	1
bin	89	1
bin	90	1
bin	91	1
bin	92	2
bin	93	1
bin	94	1
bin	95	1
bin	96	2
bin	97	0
bin	98	0
bin	99	0
bin	100	0
bin	101	0
bin	102	0
bin	103	0
bin	104	8
bin	105	1
bin	106	1
bin	107	1
bin	108	1
bin	109	1
bin	110	2
bin	111	0
bin	112	0
bin	113	0
bin	114	0
bin	115	0
bin	116	0
bin	117	0
bin	118	8
bin	119	1
bin	120	1
bin	121	1
bin	122	1
bin	123	1
bin	124	1
bin	125	1
bin	126	1
bin	127	1
bin	128	1
bin	129	1
bin	130	1
bin	131	1
bin	132	2
bin	133	0
bin	134	0
bin	135	604
scalar SimphonyDHTNetwork.members[5] 	#packetsInTheNetwork 	511
statistic SimphonyDHTNetwork.members[5] 	"packets statistics"
field count 554
field mean 254.74187725632
field stddev 147.00356178071
field sum 141127
field sqrsum 47901313
field min 0
field max 510
attr type  int
bin	-INF	0
bin	-46	0
bin	-45	0
bin	-44	0
bin	-43	0
bin	-42	0
bin	-41	0
bin	-40	0
bin	-39	0
bin	-38	0
bin	-37	0
bin	-36	0
bin	-35	0
bin	-34	0
bin	-33	0
bin	-32	0
bin	-31	0
bin	-30	0
bin	-29	0
bin	-28	0
bin	-27	0
bin	-26	0
bin	-25	0
bin	-24	0
bin	-23	0
bin	-22	0
bin	-21	0
bin	-20	0
bin	-19	0
bin	-18	0
bin	-17	0
bin	-16	0
bin	-15	0
bin	-14	0
bin	-13	0
bin	-12	0
bin	-11	0
bin	-10	0
bin	-9	0
bin	-8	0
bin	-7	0
bin	-6	0
bin	-5	0
bin	-4	0
bin	-3	0
bin	-2	0
bin	-1	0
bin	0	1
bin	1	1
bin	2	1
bin	3	2
bin	4	0
bin	5	0
bin	6	0
bin	7	0
bin	8	5
bin	9	1
bin	10	1
bin	11	1
bin	12	1
bin	13	1
bin	14	1
bin	15	1
bin	16	2
bin	17	0
bin	18	0
bin	19	0
bin	20	0
bin	21	5
bin	22	1
bin	23	1
bin	24	1
bin	25	1
bin	26	1
bin	27	1
bin	28	2
bin	29	0
bin	30	0
bin	31	0
bin	32	0
bin	33	5
bin	34	1
bin	35	1
bin	36	1
bin	37	1
bin	38	1
bin	39	1
bin	40	1
bin	41	1
bin	42	1
bin	43	1
bin	44	0
bin	45	2
bin	46	0
bin	47	0
bin	48	0
bin	49	0
bin	50	5
bin	51	1
bin	52	2
bin	53	1
bin	54	1
bin	55	1
bin	56	1
bin	57	1
bin	58	1
bin	59	1
bin	60	2
bin	61	0
bin	62	0
bin	63	0
bin	64	0
bin	65	5
bin	66	1
bin	67	1
bin	68	1
bin	69	1
bin	70	1
bin	71	1
bin	72	1
bin	73	1
bin	74	1
bin	75	1
bin	76	1
bin	77	1
bin	78	2
bin	79	1
bin	80	1
bin	81	2
bin	82	0
bin	83	0
bin	84	0
bin	85	0
bin	86	0
bin	87	6
bin	88	1
bin	89	1
bin	90	1
bin	91	1
bin	92	1
bin	93	2
bin	94	0
bin	95	0
bin	96	0
bin	97	0
bin	98	0
bin	99	6
bin	100	1
bin	101	1
bin	102	1
bin	103	1
bin	104	1
bin	105	1
bin	106	1
bin	107	1
bin	108	2
bin	109	0
bin	110	0
bin	111	0
bin	112	0
bin	113	2
bin	114	4
bin	115	1
bin	116	1
bin	117	1
bin	118	1
bin	119	2
bin	120	0
bin	121	0
bin	122	0
bin	123	0
bin	124	5
bin	125	1
bin	126	1
bin	127	1
bin	128	1
bin	129	1
bin	130	1
bin	131	1
bin	132	1
bin	133	1
bin	134	2
bin	135	0
bin	136	0
bin	137	0
bin	138	408
scalar SimphonyDHTNetwork.members[6] 	#packetsInTheNetwork 	509
statistic SimphonyDHTNetwork.members[6] 	"packets statistics"
field count 553
field mean 253.91139240506
field stddev 146.99071163983
field sum 140413
field sqrsum 47579121
field min 0
field max 508
attr type  int
bin	-INF	0
bin	-46	0
bin	-45	0
bin	-44	0
bin	-43	0
bin	-42	0
bin	-41	0
bin	-40	0
bin	-39	0
bin	-38	0
bin	-37	0
bin	-36	0
bin	-35	0
bin	-34	0
bin	-33	0
bin	-32	0
bin	-31	0
bin	-30	0
bin	-29	0
bin	-28	0
bin	-27	0
bin	-26	0
bin	-25	0
bin	-24	0
bin	-23	0
bin	-22	0
bin	-21	0
bin	-20	0
bin	-19	0
bin	-18	0
bin	-17	0
bin	-16	0
bin	-15	0
bin	-14	0
bin	-13	0
bin	-12	0
bin	-11	0
bin	-10	0
bin	-9	0
bin	-8	0
bin	-7	0
bin	-6	0
bin	-5	0
bin	-4	0
bin	-3	0
bin	-2	0
bin	-1	0
bin	0	1
bin	1	1
bin	2	1
bin	3	2
bin	4	0
bin	5	0
bin	6	0
bin	7	0
bin	8	5
bin	9	1
bin	10	1
bin	11	1
bin	12	1
bin	13	1
bin	14	1
bin	15	1
bin	16	1
bin	17	2
bin	18	0
bin	19	0
bin	20	0
bin	21	0
bin	22	5
bin	23	1
bin	24	1
bin	25	1
bin	26	1
bin	27	1
bin	28	2
bin	29	2
bin	30	1
bin	31	1
bin	32	2
bin	33	0
bin	34	0
bin	35	0
bin	36	0
bin	37	5
bin	38	1
bin	39	1
bin	40	1
bin	41	1
bin	42	1
bin	43	1
bin	44	1
bin	45	1
bin	46	1
bin	47	1
bin	48	1
bin	49	1
bin	50	1
bin	51	1
bin	52	1
bin	53	1
bin	54	1
bin	55	1
bin	56	1
bin	57	1
bin	58	0
bin	59	2
bin	60	0
bin	61	0
bin	62	0
bin	63	0
bin	64	5
bin	65	1
bin	66	2
bin	67	1
bin	68	1
bin	69	1
bin	70	1
bin	71	1
bin	72	1
bin	73	2
bin	74	0
bin	75	0
bin	76	0
bin	77	0
bin	78	5
bin	79	1
bin	80	1
bin	81	1
bin	82	1
bin	83	1
bin	84	1
bin	85	1
bin	86	1
bin	87	1
bin	88	1
bin	89	1
bin	90	1
bin	91	2
bin	92	1
bin	93	1
bin	94	2
bin	95	0
bin	96	0
bin	97	0
bin	98	0
bin	99	3
bin	100	3
bin	101	1
bin	102	1
bin	103	1
bin	104	1
bin	105	1
bin	106	1
bin	107	1
bin	108	1
bin	109	1
bin	110	1
bin	111	2
bin	112	0
bin	113	0
bin	114	0
bin	115	0
bin	116	5
bin	117	1
bin	118	1
bin	119	1
bin	120	1
bin	121	2
bin	122	0
bin	123	0
bin	124	0
bin	125	0
bin	126	5
bin	127	1
bin	128	1
bin	129	1
bin	130	1
bin	131	1
bin	132	1
bin	133	1
bin	134	1
bin	135	1
bin	136	1
bin	137	405
scalar SimphonyDHTNetwork.members[7] 	#packetsInTheNetwork 	516
statistic SimphonyDHTNetwork.members[7] 	"packets statistics"
field count 560
field mean 259.16071428571
field stddev 150.54054978669
field sum 145130
field sqrsum 50280308
field min 0
field max 516
attr type  int
bin	-INF	0
bin	-45	0
bin	-44	0
bin	-43	0
bin	-42	0
bin	-41	0
bin	-40	0
bin	-39	0
bin	-38	0
bin	-37	0
bin	-36	0
bin	-35	0
bin	-34	0
bin	-33	0
bin	-32	0
bin	-31	0
bin	-30	0
bin	-29	0
bin	-28	0
bin	-27	0
bin	-26	0
bin	-25	0
bin	-24	0
bin	-23	0
bin	-22	0
bin	-21	0
bin	-20	0
bin	-19	0
bin	-18	0
bin	-17	0
bin	-16	0
bin	-15	0
bin	-14	0
bin	-13	0
bin	-12	0
bin	-11	0
bin	-10	0
bin	-9	0
bin	-8	0
bin	-7	0
bin	-6	0
bin	-5	0
bin	-4	0
bin	-3	0
bin	-2	0
bin	-1	0
bin	0	1
bin	1	1
bin	2	1
bin	3	2
bin	4	0
bin	5	0
bin	6	0
bin	7	0
bin	8	5
bin	9	1
bin	10	1
bin	11	1
bin	12	1
bin	13	1
bin	14	2
bin	15	1
bin	16	1
bin	17	1
bin	18	1
bin	19	1
bin	20	1
bin	21	1
bin	22	2
bin	23	0
bin	24	0
bin	25	0
bin	26	0
bin	27	0
bin	28	6
bin	29	1
bin	30	1
bin	31	1
bin	32	1
bin	33	1
bin	34	2
bin	35	1
bin	36	2
bin	37	2
bin	38	1
bin	39	1
bin	40	1
bin	41	1
bin	42	1
bin	43	1
bin	44	1
bin	45	1
bin	46	1
bin	47	1
bin	48	1
bin	49	1
bin	50	1
bin	51	2
bin	52	0
bin	53	0
bin	54	0
bin	55	0
bin	56	0
bin	57	6
bin	58	1
bin	59	1
bin	60	1
bin	61	1
bin	62	1
bin	63	2
bin	64	0
bin	65	0
bin	66	0
bin	67	0
bin	68	0
bin	69	6
bin	70	1
bin	71	1
bin	72	1
bin	73	1
bin	74	1
bin	75	2
bin	76	0
bin	77	0
bin	78	0
bin	79	0
bin	80	0
bin	81	6
bin	82	1
bin	83	1
bin	84	1
bin	85	1
bin	86	1
bin	87	1
bin	88	1
bin	89	1
bin	90	1
bin	91	1
bin	92	2
bin	93	0
bin	94	0
bin	95	0
bin	96	0
bin	97	0
bin	98	6
bin	99	1
bin	100	1
bin	101	1
bin	102	1
bin	103	1
bin	104	1
bin	105	1
bin	106	1
bin	107	1
bin	108	1
bin	109	2
bin	110	0
bin	111	0
bin	112	0
bin	113	0
bin	114	0
bin	115	6
bin	116	1
bin	117	1
bin	118	1
bin	119	1
bin	120	1
bin	121	2
bin	122	0
bin	123	0
bin	124	0
bin	125	0
bin	126	0
bin	127	6
bin	128	1
bin	129	1
bin	130	1
bin	131	1
bin	132	1
bin	133	2
bin	134	0
bin	135	413
scalar SimphonyDHTNetwork.members[8] 	#packetsInTheNetwork 	588
statistic SimphonyDHTNetwork.members[8] 	"packets statistics"
field count 629
field mean 294.30047694754
field stddev 170.60946487854
field sum 185115
field sqrsum 72758999
field min 0
field max 587
attr type  int
bin	-INF	0
bin	-49	0
bin	-48	0
bin	-47	0
bin	-46	0
bin	-45	0
bin	-44	0
bin	-43	0
bin	-42	0
bin	-41	0
bin	-40	0
bin	-39	0
bin	-38	0
bin	-37	0
bin	-36	0
bin	-35	0
bin	-34	0
bin	-33	0
bin	-32	0
bin	-31	0
bin	-30	0
bin	-29	0
bin	-28	0
bin	-27	0
bin	-26	0
bin	-25	0
bin	-24	0
bin	-23	0
bin	-22	0
bin	-21	0
bin	-20	0
bin	-19	0
bin	-18	0
bin	-17	0
bin	-16	0
bin	-15	0
bin	-14	0
bin	-13	0
bin	-12	0
bin	-11	0
bin	-10	0
bin	-9	0
bin	-8	0
bin	-7	0
bin	-6	0
bin	-5	0
bin	-4	0
bin	-3	0
bin	-2	0
bin	-1	0
bin	0	1
bin	1	1
bin	2	2
bin	3	0
bin	4	0
bin	5	0
bin	6	0
bin	7	0
bin	8	6
bin	9	1
bin	10	1
bin	11	1
bin	12	1
bin	13	2
bin	14	0
bin	15	0
bin	16	0
bin	17	0
bin	18	0
bin	19	6
bin	20	1
bin	21	1
bin	22	1
bin	23	1
bin	24	1
bin	25	1
bin	26	1
bin	27	1
bin	28	2
bin	29	0
bin	30	0
bin	31	0
bin	32	0
bin	33	0
bin	34	6
bin	35	1
bin	36	1
bin	37	1
bin	38	1
bin	39	1
bin	40	2
bin	41	0
bin	42	0
bin	43	0
bin	44	0
bin	45	0
bin	46	6
bin	47	1
bin	48	1
bin	49	1
bin	50	1
bin	51	2
bin	52	1
bin	53	1
bin	54	2
bin	55	0
bin	56	0
bin	57	0
bin	58	0
bin	59	0
bin	60	0
bin	61	7
bin	62	1
bin	63	1
bin	64	1
bin	65	1
bin	66	1
bin	67	1
bin	68	1
bin	69	1
bin	70	1
bin	71	2
bin	72	1
bin	73	1
bin	74	2
bin	75	0
bin	76	0
bin	77	0
bin	78	0
bin	79	0
bin	80	0
bin	81	0
bin	82	8
bin	83	1
bin	84	1
bin	85	1
bin	86	1
bin	87	1
bin	88	1
bin	89	2
bin	90	0
bin	91	0
bin	92	0
bin	93	0
bin	94	0
bin	95	0
bin	96	0
bin	97	8
bin	98	1
bin	99	1
bin	100	1
bin	101	1
bin	102	1
bin	103	1
bin	104	2
bin	105	0
bin	106	0
bin	107	0
bin	108	0
bin	109	0
bin	110	0
bin	111	0
bin	112	8
bin	113	1
bin	114	1
bin	115	1
bin	116	1
bin	117	1
bin	118	1
bin	119	1
bin	120	1
bin	121	1
bin	122	1
bin	123	1
bin	124	1
bin	125	1
bin	126	1
bin	127	1
bin	128	2
bin	129	0
bin	130	0
bin	131	0
bin	132	0
bin	133	0
bin	134	0
bin	135	0
bin	136	8
bin	137	1
bin	138	1
bin	139	1
bin	140	1
bin	141	1
bin	142	1
bin	143	1
bin	144	1
bin	145	1
bin	146	472
scalar SimphonyDHTNetwork.members[9] 	#packetsInTheNetwork 	477
statistic SimphonyDHTNetwork.members[9] 	"packets statistics"
field count 508
field mean 239.58267716535
field stddev 138.28224522439
field sum 121708
field sqrsum 38853972
field min 0
field max 476
attr type  int
bin	-INF	0
bin	-47	0
bin	-46	0
bin	-45	0
bin	-44	0
bin	-43	0
bin	-42	0
bin	-41	0
bin	-40	0
bin	-39	0
bin	-38	0
bin	-37	0
bin	-36	0
bin	-35	0
bin	-34	0
bin	-33	0
bin	-32	0
bin	-31	0
bin	-30	0
bin	-29	0
bin	-28	0
bin	-27	0
bin	-26	0
bin	-25	0
bin	-24	0
bin	-23	0
bin	-22	0
bin	-21	0
bin	-20	0
bin	-19	0
bin	-18	0
bin	-17	0
bin	-16	0
bin	-15	0
bin	-14	0
bin	-13	0
bin	-12	0
bin	-11	0
bin	-10	0
bin	-9	0
bin	-8	0
bin	-7	0
bin	-6	0
bin	-5	0
bin	-4	0
bin	-3	0
bin	-2	0
bin	-1	0
bin	0	1
bin	1	1
bin	2	1
bin	3	1
bin	4	1
bin	5	1
bin	6	1
bin	7	1
bin	8	1
bin	9	1
bin	10	1
bin	11	2
bin	12	0
bin	13	0
bin	14	0
bin	15	0
bin	16	0
bin	17	0
bin	18	7
bin	19	1
bin	20	1
bin	21	1
bin	22	1
bin	23	1
bin	24	2
bin	25	0
bin	26	0
bin	27	0
bin	28	0
bin	29	0
bin	30	0
bin	31	7
bin	32	1
bin	33	1
bin	34	1
bin	35	1
bin	36	1
bin	37	1
bin	38	1
bin	39	1
bin	40	1
bin	41	1
bin	42	1
bin	43	1
bin	44	1
bin	45	1
bin	46	2
bin	47	0
bin	48	0
bin	49	0
bin	50	0
bin	51	0
bin	52	0
bin	53	7
bin	54	1
bin	55	1
bin	56	1
bin	57	1
bin	58	1
bin	59	1
bin	60	1
bin	61	1
bin	62	1
bin	63	1
bin	64	1
bin	65	2
bin	66	0
bin	67	0
bin	68	0
bin	69	0
bin	70	0
bin	71	0
bin	72	7
bin	73	1
bin	74	1
bin	75	1
bin	76	1
bin	77	1
bin	78	1
bin	79	1
bin	80	1
bin	81	2
bin	82	1
bin	83	1
bin	84	1
bin	85	1
bin	86	1
bin	87	2
bin	88	1
bin	89	1
bin	90	1
bin	91	1
bin	92	1
bin	93	1
bin	94	1
bin	95	1
bin	96	1
bin	97	1
bin	98	2
bin	99	0
bin	100	0
bin	101	0
bin	102	0
bin	103	0
bin	104	0
bin	105	0
bin	106	8
bin	107	1
bin	108	1
bin	109	1
bin	110	1
bin	111	2
bin	112	0
bin	113	0
bin	114	0
bin	115	0
bin	116	0
bin	117	0
bin	118	0
bin	119	8
bin	120	1
bin	121	1
bin	122	1
bin	123	1
bin	124	1
bin	125	1
bin	126	1
bin	127	1
bin	128	1
bin	129	1
bin	130	1
bin	131	1
bin	132	2
bin	133	1
bin	134	1
bin	135	2
bin	136	0
bin	137	0
bin	138	0
bin	139	0
bin	140	362
scalar SimphonyDHTNetwork.members[10] 	#packetsInTheNetwork 	527
statistic SimphonyDHTNetwork.members[10] 	"packets statistics"
field count 564
field mean 265.04964539007
field stddev 152.68462376349
field sum 149488
field sqrsum 52746732
field min 0
field max 526
attr type  int
bin	-INF	0
bin	-50	0
bin	-49	0
bin	-48	0
bin	-47	0
bin	-46	0
bin	-45	0
bin	-44	0
bin	-43	0
bin	-42	0
bin	-41	0
bin	-40	0
bin	-39	0
bin	-38	0
bin	-37	0
bin	-36	0
bin	-35	0
bin	-34	0
bin	-33	0
bin	-32	0
bin	-31	0
bin	-30	0
bin	-29	0
bin	-28	0
bin	-27	0
bin	-26	0
bin	-25	0
bin	-24	0
bin	-23	0
bin	-22	0
bin	-21	0
bin	-20	0
bin	-19	0
bin	-18	0
bin	-17	0
bin	-16	0
bin	-15	0
bin	-14	0
bin	-13	0
bin	-12	0
bin	-11	0
bin	-10	0
bin	-9	0
bin	-8	0
bin	-7	0
bin	-6	0
bin	-5	0
bin	-4	0
bin	-3	0
bin	-2	0
bin	-1	0
bin	0	1
bin	1	1
bin	2	1
bin	3	1
bin	4	1
bin	5	1
bin	6	1
bin	7	1
bin	8	1
bin	9	1
bin	10	1
bin	11	1
bin	12	2
bin	13	0
bin	14	0
bin	15	0
bin	16	0
bin	17	0
bin	18	0
bin	19	0
bin	20	8
bin	21	1
bin	22	1
bin	23	1
bin	24	1
bin	25	1
bin	26	1
bin	27	2
bin	28	0
bin	29	0
bin	30	0
bin	31	0
bin	32	0
bin	33	0
bin	34	0
bin	35	8
bin	36	1
bin	37	1
bin	38	1
bin	39	1
bin	40	1
bin	41	1
bin	42	1
bin	43	1
bin	44	2
bin	45	1
bin	46	1
bin	47	1
bin	48	1
bin	49	1
bin	50	1
bin	51	1
bin	52	1
bin	53	2
bin	54	0
bin	55	0
bin	56	0
bin	57	0
bin	58	0
bin	59	0
bin	60	0
bin	61	8
bin	62	1
bin	63	1
bin	64	1
bin	65	1
bin	66	1
bin	67	1
bin	68	1
bin	69	1
bin	70	1
bin	71	1
bin	72	1
bin	73	1
bin	74	1
bin	75	2
bin	76	0
bin	77	0
bin	78	0
bin	79	0
bin	80	0
bin	81	0
bin	82	0
bin	83	8
bin	84	1
bin	85	1
bin	86	1
bin	87	1
bin	88	1
bin	89	1
bin	90	1
bin	91	1
bin	92	2
bin	93	0
bin	94	0
bin	95	0
bin	96	0
bin	97	0
bin	98	0
bin	99	0
bin	100	8
bin	101	1
bin	102	1
bin	103	1
bin	104	1
bin	105	1
bin	106	1
bin	107	1
bin	108	2
bin	109	0
bin	110	0
bin	111	0
bin	112	0
bin	113	0
bin	114	0
bin	115	0
bin	116	8
bin	117	1
bin	118	1
bin	119	1
bin	120	1
bin	121	1
bin	122	2
bin	123	1
bin	124	1
bin	125	1
bin	126	1
bin	127	1
bin	128	2
bin	129	2
bin	130	1
bin	131	1
bin	132	2
bin	133	0
bin	134	0
bin	135	0
bin	136	0
bin	137	0
bin	138	0
bin	139	0
bin	140	8
bin	141	1
bin	142	1
bin	143	1
bin	144	1
bin	145	2
bin	146	0
bin	147	0
bin	148	0
bin	149	0
bin	150	406
scalar SimphonyDHTNetwork.members[11] 	#packetsInTheNetwork 	391
statistic SimphonyDHTNetwork.members[11] 	"packets statistics"
field count 422
field mean 195.70853080569
field stddev 113.15857275251
field sum 82589
field sqrsum 21554219
field min 0
field max 390
attr type  int
bin	-INF	0
bin	-46	0
bin	-45	0
bin	-44	0
bin	-43	0
bin	-42	0
bin	-41	0
bin	-40	0
bin	-39	0
bin	-38	0
bin	-37	0
bin	-36	0
bin	-35	0
bin	-34	0
bin	-33	0
bin	-32	0
bin	-31	0
bin	-30	0
bin	-29	0
bin	-28	0
bin	-27	0
bin	-26	0
bin	-25	0
bin	-24	0
bin	-23	0
bin	-22	0
bin	-21	0
bin	-20	0
bin	-19	0
bin	-18	0
bin	-17	0
bin	-16	0
bin	-15	0
bin	-14	0
bin	-13	0
bin	-12	0
bin	-11	0
bin	-10	0
bin	-9	0
bin	-8	0
bin	-7	0
bin	-6	0
bin	-5	0
bin	-4	0
bin	-3	0
bin	-2	0
bin	-1	0
bin	0	1
bin	1	1
bin	2	1
bin	3	1
bin	4	1
bin	5	2
bin	6	2
bin	7	1
bin	8	1
bin	9	2
bin	10	0
bin	11	0
bin	12	0
bin	13	0
bin	14	0
bin	15	0
bin	16	0
bin	17	8
bin	18	1
bin	19	1
bin	20	1
bin	21	1
bin	22	1
bin	23	2
bin	24	0
bin	25	0
bin	26	0
bin	27	0
bin	28	0
bin	29	0
bin	30	0
bin	31	8
bin	32	1
bin	33	1
bin	34	1
bin	35	1
bin	36	1
bin	37	1
bin	38	1
bin	39	1
bin	40	2
bin	41	0
bin	42	0
bin	43	0
bin	44	0
bin	45	0
bin	46	0
bin	47	0
bin	48	8
bin	49	1
bin	50	1
bin	51	1
bin	52	1
bin	53	1
bin	54	1
bin	55	1
bin	56	1
bin	57	2
bin	58	0
bin	59	0
bin	60	0
bin	61	0
bin	62	0
bin	63	0
bin	64	0
bin	65	8
bin	66	1
bin	67	1
bin	68	1
bin	69	1
bin	70	1
bin	71	2
bin	72	1
bin	73	1
bin	74	1
bin	75	2
bin	76	0
bin	77	0
bin	78	0
bin	79	0
bin	80	0
bin	81	0
bin	82	0
bin	83	8
bin	84	1
bin	85	1
bin	86	1
bin	87	1
bin	88	1
bin	89	1
bin	90	1
bin	91	1
bin	92	1
bin	93	1
bin	94	1
bin	95	1
bin	96	1
bin	97	1
bin	98	1
bin	99	1
bin	100	1
bin	101	1
bin	102	1
bin	103	1
bin	104	1
bin	105	2
bin	106	0
bin	107	0
bin	108	0
bin	109	0
bin	110	0
bin	111	0
bin	112	0
bin	113	8
bin	114	1
bin	115	1
bin	116	1
bin	117	1
bin	118	1
bin	119	1
bin	120	1
bin	121	2
bin	122	0
bin	123	0
bin	124	0
bin	125	0
bin	126	0
bin	127	0
bin	128	0
bin	129	8
bin	130	1
bin	131	1
bin	132	1
bin	133	1
bin	134	1
bin	135	1
bin	136	1
bin	137	275
scalar SimphonyDHTNetwork.members[12] 	#packetsInTheNetwork 	611
statistic SimphonyDHTNetwork.members[12] 	"packets statistics"
field count 654
field mean 307.00305810398
field stddev 176.82990327434
field sum 200780
field sqrsum 82058610
field min 0
field max 610
attr type  int
bin	-INF	0
bin	-46	0
bin	-45	0
bin	-44	0
bin	-43	0
bin	-42	0
bin	-41	0
bin	-40	0
bin	-39	0
bin	-38	0
bin	-37	0
bin	-36	0
bin	-35	0
bin	-34	0
bin	-33	0
bin	-32	0
bin	-31	0
bin	-30	0
bin	-29	0
bin	-28	0
bin	-27	0
bin	-26	0
bin	-25	0
bin	-24	0
bin	-23	0
bin	-22	0
bin	-21	0
bin	-20	0
bin	-19	0
bin	-18	0
bin	-17	0
bin	-16	0
bin	-15	0
bin	-14	0
bin	-13	0
bin	-12	0
bin	-11	0
bin	-10	0
bin	-9	0
bin	-8	0
bin	-7	0
bin	-6	0
bin	-5	0
bin	-4	0
bin	-3	0
bin	-2	0
bin	-1	0
bin	0	1
bin	1	1
bin	2	1
bin	3	1
bin	4	1
bin	5	1
bin	6	2
bin	7	1
bin	8	2
bin	9	2
bin	10	1
bin	11	1
bin	12	1
bin	13	1
bin	14	1
bin	15	1
bin	16	1
bin	17	1
bin	18	1
bin	19	1
bin	20	1
bin	21	1
bin	22	1
bin	23	1
bin	24	2
bin	25	0
bin	26	0
bin	27	0
bin	28	0
bin	29	0
bin	30	0
bin	31	0
bin	32	8
bin	33	1
bin	34	1
bin	35	1
bin	36	1
bin	37	1
bin	38	1
bin	39	2
bin	40	0
bin	41	0
bin	42	0
bin	43	0
bin	44	0
bin	45	0
bin	46	0
bin	47	8
bin	48	1
bin	49	1
bin	50	1
bin	51	1
bin	52	1
bin	53	1
bin	54	1
bin	55	1
bin	56	1
bin	57	1
bin	58	1
bin	59	1
bin	60	1
bin	61	1
bin	62	1
bin	63	1
bin	64	1
bin	65	1
bin	66	1
bin	67	1
bin	68	1
bin	69	2
bin	70	0
bin	71	0
bin	72	0
bin	73	0
bin	74	0
bin	75	0
bin	76	0
bin	77	8
bin	78	1
bin	79	1
bin	80	0
bin	81	2
bin	82	0
bin	83	0
bin	84	0
bin	85	0
bin	86	0
bin	87	0
bin	88	0
bin	89	8
bin	90	1
bin	91	2
bin	92	1
bin	93	1
bin	94	2
bin	95	0
bin	96	0
bin	97	0
bin	98	0
bin	99	0
bin	100	0
bin	101	0
bin	102	8
bin	103	1
bin	104	1
bin	105	1
bin	106	1
bin	107	1
bin	108	1
bin	109	1
bin	110	1
bin	111	1
bin	112	1
bin	113	1
bin	114	1
bin	115	1
bin	116	1
bin	117	1
bin	118	1
bin	119	1
bin	120	1
bin	121	1
bin	122	1
bin	123	1
bin	124	1
bin	125	2
bin	126	0
bin	127	0
bin	128	0
bin	129	0
bin	130	0
bin	131	0
bin	132	0
bin	133	8
bin	134	1
bin	135	1
bin	136	1
bin	137	1
bin	138	507
scalar SimphonyDHTNetwork.members[13] 	#packetsInTheNetwork 	467
statistic SimphonyDHTNetwork.members[13] 	"packets statistics"
field count 497
field mean 233.86317907445
field stddev 134.87825077682
field sum 116230
field sqrsum 36205220
field min 0
field max 466
attr type  int
bin	-INF	0
bin	-49	0
bin	-48	0
bin	-47	0
bin	-46	0
bin	-45	0
bin	-44	0
bin	-43	0
bin	-42	0
bin	-41	0
bin	-40	0
bin	-39	0
bin	-38	0
bin	-37	0
bin	-36	0
bin	-35	0
bin	-34	0
bin	-33	0
bin	-32	0
bin	-31	0
bin	-30	0
bin	-29	0
bin	-28	0
bin	-27	0
bin	-26	0
bin	-25	0
bin	-24	0
bin	-23	0
bin	-22	0
bin	-21	0
bin	-20	0
bin	-19	0
bin	-18	0
bin	-17	0
bin	-16	0
bin	-15	0
bin	-14	0
bin	-13	0
bin	-12	0
bin	-11	0
bin	-10	0
bin	-9	0
bin	-8	0
bin	-7	0
bin	-6	0
bin	-5	0
bin	-4	0
bin	-3	0
bin	-2	0
bin	-1	0
bin	0	1
bin	1	1
bin	2	1
bin	3	1
bin	4	1
bin	5	1
bin	6	2
bin	7	0
bin	8	0
bin	9	0
bin	10	0
bin	11	0
bin	12	0
bin	13	0
bin	14	8
bin	15	1
bin	16	1
bin	17	1
bin	18	1
bin	19	1
bin	20	1
bin	21	1
bin	22	1
bin	23	1
bin	24	1
bin	25	1
bin	26	1
bin	27	2
bin	28	0
bin	29	0
bin	30	0
bin	31	0
bin	32	0
bin	33	0
bin	34	0
bin	35	8
bin	36	1
bin	37	1
bin	38	1
bin	39	1
bin	40	1
bin	41	2
bin	42	2
bin	43	1
bin	44	1
bin	45	2
bin	46	0
bin	47	0
bin	48	0
bin	49	0
bin	50	0
bin	51	0
bin	52	0
bin	53	8
bin	54	1
bin	55	1
bin	56	1
bin	57	1
bin	58	1
bin	59	1
bin	60	1
bin	61	1
bin	62	1
bin	63	1
bin	64	1
bin	65	1
bin	66	1
bin	67	1
bin	68	1
bin	69	1
bin	70	1
bin	71	1
bin	72	1
bin	73	1
bin	74	2
bin	75	0
bin	76	0
bin	77	0
bin	78	0
bin	79	0
bin	80	0
bin	81	0
bin	82	8
bin	83	1
bin	84	1
bin	85	1
bin	86	1
bin	87	1
bin	88	1
bin	89	2
bin	90	0
bin	91	0
bin	92	0
bin	93	0
bin	94	0
bin	95	0
bin	96	0
bin	97	8
bin	98	1
bin	99	1
bin	100	1
bin	101	1
bin	102	1
bin	103	1
bin	104	1
bin	105	2
bin	106	0
bin	107	0
bin	108	0
bin	109	0
bin	110	0
bin	111	0
bin	112	0
bin	113	8
bin	114	1
bin	115	1
bin	116	1
bin	117	1
bin	118	2
bin	119	0
bin	120	0
bin	121	0
bin	122	0
bin	123	0
bin	124	0
bin	125	0
bin	126	8
bin	127	1
bin	128	1
bin	129	1
bin	130	1
bin	131	1
bin	132	1
bin	133	1
bin	134	1
bin	135	1
bin	136	1
bin	137	1
bin	138	2
bin	139	1
bin	140	1
bin	141	1
bin	142	1
bin	143	2
bin	144	0
bin	145	0
bin	146	342
scalar SimphonyDHTNetwork.members[14] 	#packetsInTheNetwork 	320
statistic SimphonyDHTNetwork.members[14] 	"packets statistics"
field count 353
field mean 158.88668555241
field stddev 91.630394350416
field sum 56087
field sqrsum 11866915
field min 0
field max 319
attr type  int
bin	-INF	0
bin	-47	0
bin	-46	0
bin	-45	0
bin	-44	0
bin	-43	0
bin	-42	0
bin	-41	0
bin	-40	0
bin	-39	0
bin	-38	0
bin	-37	0
bin	-36	0
bin	-35	0
bin	-34	0
bin	-33	0
bin	-32	0
bin	-31	0
bin	-30	0
bin	-29	0
bin	-28	0
bin	-27	0
bin	-26	0
bin	-25	0
bin	-24	0
bin	-23	0
bin	-22	0
bin	-21	0
bin	-20	0
bin	-19	0
bin	-18	0
bin	-17	0
bin	-16	0
bin	-15	0
bin	-14	0
bin	-13	0
bin	-12	0
bin	-11	0
bin	-10	0
bin	-9	0
bin	-8	0
bin	-7	0
bin	-6	0
bin	-5	0
bin	-4	0
bin	-3	0
bin	-2	0
bin	-1	0
bin	0	1
bin	1	1
bin	2	1
bin	3	1
bin	4	1
bin	5	1
bin	6	2
bin	7	1
bin	8	1
bin	9	1
bin	10	1
bin	11	1
bin	12	1
bin	13	1
bin	14	1
bin	15	1
bin	16	1
bin	17	1
bin	18	1
bin	19	2
bin	20	0
bin	21	0
bin	22	0
bin	23	0
bin	24	0
bin	25	0
bin	26	0
bin	27	8
bin	28	1
bin	29	1
bin	30	1
bin	31	1
bin	32	1
bin	33	2
bin	34	1
bin	35	2
bin	36	2
bin	37	1
bin	38	1
bin	39	1
bin	40	1
bin	41	1
bin	42	1
bin	43	1
bin	44	1
bin	45	1
bin	46	1
bin	47	1
bin	48	2
bin	49	0
bin	50	0
bin	51	0
bin	52	0
bin	53	0
bin	54	0
bin	55	0
bin	56	8
bin	57	1
bin	58	1
bin	59	1
bin	60	1
bin	61	1
bin	62	1
bin	63	1
bin	64	1
bin	65	1
bin	66	1
bin	67	1
bin	68	2
bin	69	0
bin	70	0
bin	71	0
bin	72	0
bin	73	0
bin	74	0
bin	75	0
bin	76	8
bin	77	1
bin	78	1
bin	79	1
bin	80	1
bin	81	2
bin	82	2
bin	83	1
bin	84	1
bin	85	2
bin	86	0
bin	87	0
bin	88	0
bin	89	0
bin	90	0
bin	91	0
bin	92	0
bin	93	8
bin	94	1
bin	95	1
bin	96	1
bin	97	1
bin	98	1
bin	99	2
bin	100	0
bin	101	0
bin	102	0
bin	103	0
bin	104	0
bin	105	0
bin	106	0
bin	107	8
bin	108	1
bin	109	1
bin	110	1
bin	111	1
bin	112	1
bin	113	1
bin	114	1
bin	115	1
bin	116	1
bin	117	1
bin	118	1
bin	119	1
bin	120	2
bin	121	1
bin	122	1
bin	123	1
bin	124	1
bin	125	1
bin	126	2
bin	127	1
bin	128	2
bin	129	1
bin	130	2
bin	131	0
bin	132	1
bin	133	2
bin	134	1
bin	135	1
bin	136	2
bin	137	0
bin	138	2
bin	139	1
bin	140	197
scalar SimphonyDHTNetwork.members[15] 	#packetsInTheNetwork 	487
statistic SimphonyDHTNetwork.members[15] 	"packets statistics"
field count 517
field mean 243.00580270793
field stddev 140.49579280434
field sum 125634
field sqrsum 40715150
field min 0
field max 486
attr type  int
bin	-INF	0
bin	-47	0
bin	-46	0
bin	-45	0
bin	-44	0
bin	-43	0
bin	-42	0
bin	-41	0
bin	-40	0
bin	-39	0
bin	-38	0
bin	-37	0
bin	-36	0
bin	-35	0
bin	-34	0
bin	-33	0
bin	-32	0
bin	-31	0
bin	-30	0
bin	-29	0
bin	-28	0
bin	-27	0
bin	-26	0
bin	-25	0
bin	-24	0
bin	-23	0
bin	-22	0
bin	-21	0
bin	-20	0
bin	-19	0
bin	-18	0
bin	-17	0
bin	-16	0
bin	-15	0
bin	-14	0
bin	-13	0
bin	-12	0
bin	-11	0
bin	-10	0
bin	-9	0
bin	-8	0
bin	-7	0
bin	-6	0
bin	-5	0
bin	-4	0
bin	-3	0
bin	-2	0
bin	-1	0
bin	0	1
bin	1	1
bin	2	1
bin	3	1
bin	4	1
bin	5	1
bin	6	2
bin	7	0
bin	8	0
bin	9	0
bin	10	0
bin	11	0
bin	12	0
bin	13	0
bin	14	8
bin	15	1
bin	16	1
bin	17	1
bin	18	1
bin	19	1
bin	20	1
bin	21	1
bin	22	1
bin	23	1
bin	24	1
bin	25	2
bin	26	0
bin	27	0
bin	28	0
bin	29	0
bin	30	0
bin	31	0
bin	32	0
bin	33	8
bin	34	1
bin	35	1
bin	36	0
bin	37	2
bin	38	0
bin	39	0
bin	40	0
bin	41	0
bin	42	0
bin	43	0
bin	44	0
bin	45	8
bin	46	2
bin	47	1
bin	48	1
bin	49	1
bin	50	1
bin	51	1
bin	52	1
bin	53	2
bin	54	0
bin	55	0
bin	56	0
bin	57	0
bin	58	0
bin	59	0
bin	60	0
bin	61	8
bin	62	1
bin	63	1
bin	64	1
bin	65	1
bin	66	1
bin	67	1
bin	68	1
bin	69	1
bin	70	1
bin	71	1
bin	72	1
bin	73	1
bin	74	2
bin	75	1
bin	76	2
bin	77	2
bin	78	1
bin	79	1
bin	80	1
bin	81	1
bin	82	1
bin	83	1
bin	84	1
bin	85	1
bin	86	2
bin	87	0
bin	88	0
bin	89	0
bin	90	0
bin	91	0
bin	92	0
bin	93	0
bin	94	8
bin	95	1
bin	96	1
bin	97	1
bin	98	1
bin	99	2
bin	100	0
bin	101	0
bin	102	0
bin	103	0
bin	104	0
bin	105	0
bin	106	0
bin	107	8
bin	108	1
bin	109	1
bin	110	1
bin	111	1
bin	112	1
bin	113	1
bin	114	2
bin	115	0
bin	116	0
bin	117	0
bin	118	0
bin	119	0
bin	120	0
bin	121	0
bin	122	8
bin	123	1
bin	124	1
bin	125	1
bin	126	1
bin	127	1
bin	128	1
bin	129	1
bin	130	1
bin	131	1
bin	132	1
bin	133	1
bin	134	1
bin	135	0
bin	136	2
bin	137	0
bin	138	0
bin	139	0
bin	140	0
bin	141	370
scalar SimphonyDHTNetwork.members[16] 	#packetsInTheNetwork 	408
statistic SimphonyDHTNetwork.members[16] 	"packets statistics"
field count 431
field mean 204.17865429234
field stddev 117.41884127978
field sum 88001
field sqrsum 23896415
field min 0
field max 407
attr type  int
bin	-INF	0
bin	-47	0
bin	-46	0
bin	-45	0
bin	-44	0
bin	-43	0
bin	-42	0
bin	-41	0
bin	-40	0
bin	-39	0
bin	-38	0
bin	-37	0
bin	-36	0
bin	-35	0
bin	-34	0
bin	-33	0
bin	-32	0
bin	-31	0
bin	-30	0
bin	-29	0
bin	-28	0
bin	-27	0
bin	-26	0
bin	-25	0
bin	-24	0
bin	-23	0
bin	-22	0
bin	-21	0
bin	-20	0
bin	-19	0
bin	-18	0
bin	-17	0
bin	-16	0
bin	-15	0
bin	-14	0
bin	-13	0
bin	-12	0
bin	-11	0
bin	-10	0
bin	-9	0
bin	-8	0
bin	-7	0
bin	-6	0
bin	-5	0
bin	-4	0
bin	-3	0
bin	-2	0
bin	-1	0
bin	0	1
bin	1	1
bin	2	1
bin	3	1
bin	4	1
bin	5	1
bin	6	1
bin	7	2
bin	8	0
bin	9	0
bin	10	0
bin	11	0
bin	12	0
bin	13	0
bin	14	0
bin	15	8
bin	16	1
bin	17	1
bin	18	1
bin	19	1
bin	20	1
bin	21	1
bin	22	1
bin	23	1
bin	24	1
bin	25	1
bin	26	1
bin	27	2
bin	28	0
bin	29	0
bin	30	0
bin	31	0
bin	32	0
bin	33	0
bin	34	0
bin	35	8
bin	36	1
bin	37	1
bin	38	1
bin	39	1
bin	40	1
bin	41	1
bin	42	1
bin	43	1
bin	44	1
bin	45	1
bin	46	1
bin	47	1
bin	48	2
bin	49	1
bin	50	1
bin	51	1
bin	52	1
bin	53	1
bin	54	0
bin	55	2
bin	56	0
bin	57	0
bin	58	0
bin	59	0
bin	60	0
bin	61	0
bin	62	0
bin	63	8
bin	64	2
bin	65	1
bin	66	1
bin	67	1
bin	68	1
bin	69	1
bin	70	1
bin	71	1
bin	72	1
bin	73	1
bin	74	1
bin	75	2
bin	76	0
bin	77	0
bin	78	0
bin	79	0
bin	80	0
bin	81	0
bin	82	0
bin	83	8
bin	84	1
bin	85	1
bin	86	1
bin	87	1
bin	88	1
bin	89	1
bin	90	1
bin	91	1
bin	92	1
bin	93	1
bin	94	1
bin	95	1
bin	96	1
bin	97	1
bin	98	2
bin	99	1
bin	100	1
bin	101	1
bin	102	1
bin	103	1
bin	104	1
bin	105	1
bin	106	1
bin	107	1
bin	108	1
bin	109	1
bin	110	1
bin	111	1
bin	112	1
bin	113	1
bin	114	1
bin	115	1
bin	116	1
bin	117	1
bin	118	1
bin	119	1
bin	120	1
bin	121	1
bin	122	1
bin	123	1
bin	124	1
bin	125	1
bin	126	1
bin	127	2
bin	128	0
bin	129	0
bin	130	0
bin	131	0
bin	132	0
bin	133	0
bin	134	0
bin	135	8
bin	136	1
bin	137	1
bin	138	1
bin	139	1
bin	140	1
bin	141	283
scalar SimphonyDHTNetwork.members[17] 	#packetsInTheNetwork 	423
statistic SimphonyDHTNetwork.members[17] 	"packets statistics"
field count 446
field mean 212.7264573991
field stddev 122.05615421428
field sum 94876
field sqrsum 26812114
field min 0
field max 422
attr type  int
bin	-INF	0
bin	-48	0
bin	-47	0
bin	-46	0
bin	-45	0
bin	-44	0
bin	-43	0
bin	-42	0
bin	-41	0
bin	-40	0
bin	-39	0
bin	-38	0
bin	-37	0
bin	-36	0
bin	-35	0
bin	-34	0
bin	-33	0
bin	-32	0
bin	-31	0
bin	-30	0
bin	-29	0
bin	-28	0
bin	-27	0
bin	-26	0
bin	-25	0
bin	-24	0
bin	-23	0
bin	-22	0
bin	-21	0
bin	-20	0
bin	-19	0
bin	-18	0
bin	-17	0
bin	-16	0
bin	-15	0
bin	-14	0
bin	-13	0
bin	-12	0
bin	-11	0
bin	-10	0
bin	-9	0
bin	-8	0
bin	-7	0
bin	-6	0
bin	-5	0
bin	-4	0
bin	-3	0
bin	-2	0
bin	-1	0
bin	0	1
bin	1	1
bin	2	1
bin	3	1
bin	4	1
bin	5	1
bin	6	1
bin	7	1
bin	8	1
bin	9	1
bin	10	1
bin	11	2
bin	12	0
bin	13	0
bin	14	0
bin	15	0
bin	16	0
bin	17	0
bin	18	0
bin	19	8
bin	20	1
bin	21	1
bin	22	1
bin	23	1
bin	24	1
bin	25	1
bin	26	1
bin	27	1
bin	28	1
bin	29	1
bin	30	1
bin	31	1
bin	32	1
bin	33	1
bin	34	1
bin	35	2
bin	36	0
bin	37	0
bin	38	0
bin	39	0
bin	40	0
bin	41	0
bin	42	0
bin	43	8
bin	44	1
bin	45	1
bin	46	1
bin	47	1
bin	48	1
bin	49	1
bin	50	1
bin	51	1
bin	52	1
bin	53	1
bin	54	1
bin	55	1
bin	56	1
bin	57	2
bin	58	0
bin	59	0
bin	60	0
bin	61	0
bin	62	0
bin	63	0
bin	64	0
bin	65	8
bin	66	1
bin	67	1
bin	68	1
bin	69	1
bin	70	1
bin	71	1
bin	72	1
bin	73	1
bin	74	1
bin	75	1
bin	76	1
bin	77	1
bin	78	1
bin	79	2
bin	80	0
bin	81	0
bin	82	0
bin	83	0
bin	84	0
bin	85	0
bin	86	0
bin	87	8
bin	88	1
bin	89	1
bin	90	1
bin	91	1
bin	92	1
bin	93	1
bin	94	1
bin	95	1
bin	96	1
bin	97	1
bin	98	1
bin	99	1
bin	100	1
bin	101	1
bin	102	1
bin	103	1
bin	104	1
bin	105	1
bin	106	1
bin	107	1
bin	108	1
bin	109	1
bin	110	1
bin	111	1
bin	112	1
bin	113	1
bin	114	1
bin	115	1
bin	116	1
bin	117	1
bin	118	1
bin	119	1
bin	120	1
bin	121	1
bin	122	1
bin	123	1
bin	124	1
bin	125	1
bin	126	2
bin	127	1
bin	128	1
bin	129	2
bin	130	0
bin	131	0
bin	132	0
bin	133	0
bin	134	0
bin	135	0
bin	136	0
bin	137	8
bin	138	1
bin	139	1
bin	140	1
bin	141	1
bin	142	1
bin	143	297
scalar SimphonyDHTNetwork.members[18] 	#packetsInTheNetwork 	434
statistic SimphonyDHTNetwork.members[18] 	"packets statistics"
field count 461
field mean 215.34490238612
field stddev 125.62994451027
field sum 99274
field sqrsum 28638276
field min 0
field max 433
attr type  int
bin	-INF	0
bin	-45	0
bin	-44	0
bin	-43	0
bin	-42	0
bin	-41	0
bin	-40	0
bin	-39	0
bin	-38	0
bin	-37	0
bin	-36	0
bin	-35	0
bin	-34	0
bin	-33	0
bin	-32	0
bin	-31	0
bin	-30	0
bin	-29	0
bin	-28	0
bin	-27	0
bin	-26	0
bin	-25	0
bin	-24	0
bin	-23	0
bin	-22	0
bin	-21	0
bin	-20	0
bin	-19	0
bin	-18	0
bin	-17	0
bin	-16	0
bin	-15	0
bin	-14	0
bin	-13	0
bin	-12	0
bin	-11	0
bin	-10	0
bin	-9	0
bin	-8	0
bin	-7	0
bin	-6	0
bin	-5	0
bin	-4	0
bin	-3	0
bin	-2	0
bin	-1	0
bin	0	1
bin	1	1
bin	2	1
bin	3	2
bin	4	2
bin	5	1
bin	6	1
bin	7	2
bin	8	0
bin	9	0
bin	10	0
bin	11	0
bin	12	0
bin	13	0
bin	14	0
bin	15	8
bin	16	1
bin	17	1
bin	18	1
bin	19	1
bin	20	1
bin	21	2
bin	22	0
bin	23	0
bin	24	0
bin	25	0
bin	26	0
bin	27	0
bin	28	0
bin	29	8
bin	30	1
bin	31	1
bin	32	1
bin	33	1
bin	34	1
bin	35	2
bin	36	0
bin	37	0
bin	38	0
bin	39	0
bin	40	0
bin	41	0
bin	42	0
bin	43	8
bin	44	1
bin	45	1
bin	46	1
bin	47	1
bin	48	1
bin	49	1
bin	50	1
bin	51	1
bin	52	1
bin	53	1
bin	54	1
bin	55	1
bin	56	2
bin	57	2
bin	58	1
bin	59	1
bin	60	2
bin	61	0
bin	62	0
bin	63	0
bin	64	0
bin	65	0
bin	66	0
bin	67	0
bin	68	8
bin	69	1
bin	70	1
bin	71	1
bin	72	1
bin	73	1
bin	74	1
bin	75	1
bin	76	2
bin	77	0
bin	78	0
bin	79	0
bin	80	0
bin	81	0
bin	82	0
bin	83	0
bin	84	8
bin	85	1
bin	86	1
bin	87	1
bin	88	1
bin	89	1
bin	90	1
bin	91	1
bin	92	1
bin	93	1
bin	94	1
bin	95	1
bin	96	1
bin	97	1
bin	98	1
bin	99	1
bin	100	2
bin	101	0
bin	102	0
bin	103	0
bin	104	0
bin	105	0
bin	106	0
bin	107	0
bin	108	8
bin	109	1
bin	110	1
bin	111	1
bin	112	1
bin	113	1
bin	114	1
bin	115	1
bin	116	1
bin	117	2
bin	118	1
bin	119	1
bin	120	1
bin	121	1
bin	122	1
bin	123	1
bin	124	1
bin	125	1
bin	126	1
bin	127	1
bin	128	1
bin	129	1
bin	130	0
bin	131	2
bin	132	0
bin	133	0
bin	134	0
bin	135	318
scalar SimphonyDHTNetwork.members[19] 	#packetsInTheNetwork 	391
statistic SimphonyDHTNetwork.members[19] 	"packets statistics"
field count 415
field mean 194.53493975904
field stddev 113.03450846873
field sum 80732
field sqrsum 20994790
field min 0
field max 390
attr type  int
bin	-INF	0
bin	-47	0
bin	-46	0
bin	-45	0
bin	-44	0
bin	-43	0
bin	-42	0
bin	-41	0
bin	-40	0
bin	-39	0
bin	-38	0
bin	-37	0
bin	-36	0
bin	-35	0
bin	-34	0
bin	-33	0
bin	-32	0
bin	-31	0
bin	-30	0
bin	-29	0
bin	-28	0
bin	-27	0
bin	-26	0
bin	-25	0
bin	-24	0
bin	-23	0
bin	-22	0
bin	-21	0
bin	-20	0
bin	-19	0
bin	-18	0
bin	-17	0
bin	-16	0
bin	-15	0
bin	-14	0
bin	-13	0
bin	-12	0
bin	-11	0
bin	-10	0
bin	-9	0
bin	-8	0
bin	-7	0
bin	-6	0
bin	-5	0
bin	-4	0
bin	-3	0
bin	-2	0
bin	-1	0
bin	0	1
bin	1	1
bin	2	1
bin	3	2
bin	4	1
bin	5	2
bin	6	2
bin	7	1
bin	8	1
bin	9	1
bin	10	1
bin	11	1
bin	12	1
bin	13	1
bin	14	1
bin	15	1
bin	16	1
bin	17	1
bin	18	1
bin	19	2
bin	20	0
bin	21	0
bin	22	0
bin	23	0
bin	24	0
bin	25	0
bin	26	0
bin	27	8
bin	28	1
bin	29	1
bin	30	1
bin	31	1
bin	32	1
bin	33	1
bin	34	1
bin	35	1
bin	36	2
bin	37	0
bin	38	0
bin	39	0
bin	40	0
bin	41	0
bin	42	0
bin	43	0
bin	44	8
bin	45	1
bin	46	1
bin	47	1
bin	48	1
bin	49	1
bin	50	1
bin	51	1
bin	52	1
bin	53	2
bin	54	0
bin	55	0
bin	56	0
bin	57	0
bin	58	0
bin	59	0
bin	60	0
bin	61	8
bin	62	1
bin	63	1
bin	64	1
bin	65	1
bin	66	1
bin	67	1
bin	68	1
bin	69	1
bin	70	1
bin	71	1
bin	72	1
bin	73	2
bin	74	0
bin	75	0
bin	76	0
bin	77	0
bin	78	0
bin	79	0
bin	80	0
bin	81	8
bin	82	1
bin	83	1
bin	84	1
bin	85	1
bin	86	2
bin	87	0
bin	88	0
bin	89	0
bin	90	0
bin	91	0
bin	92	0
bin	93	0
bin	94	8
bin	95	1
bin	96	1
bin	97	1
bin	98	1
bin	99	1
bin	100	0
bin	101	2
bin	102	0
bin	103	0
bin	104	0
bin	105	0
bin	106	0
bin	107	0
bin	108	0
bin	109	8
bin	110	1
bin	111	2
bin	112	1
bin	113	1
bin	114	1
bin	115	1
bin	116	1
bin	117	1
bin	118	1
bin	119	1
bin	120	1
bin	121	2
bin	122	0
bin	123	0
bin	124	0
bin	125	0
bin	126	0
bin	127	0
bin	128	0
bin	129	8
bin	130	1
bin	131	1
bin	132	1
bin	133	1
bin	134	1
bin	135	1
bin	136	1
bin	137	1
bin	138	1
bin	139	1
bin	140	1
bin	141	264
scalar SimphonyDHTNetwork.members[20] 	#packetsInTheNetwork 	402
statistic SimphonyDHTNetwork.members[20] 	"packets statistics"
field count 423
field mean 201.99290780142
field stddev 116.42409990903
field sum 85443
field sqrsum 22978909
field min 0
field max 401
attr type  int
bin	-INF	0
bin	-47	0
bin	-46	0
bin	-45	0
bin	-44	0
bin	-43	0
bin	-42	0
bin	-41	0
bin	-40	0
bin	-39	0
bin	-38	0
bin	-37	0
bin	-36	0
bin	-35	0
bin	-34	0
bin	-33	0
bin	-32	0
bin	-31	0
bin	-30	0
bin	-29	0
bin	-28	0
bin	-27	0
bin	-26	0
bin	-25	0
bin	-24	0
bin	-23	0
bin	-22	0
bin	-21	0
bin	-20	0
bin	-19	0
bin	-18	0
bin	-17	0
bin	-16	0
bin	-15	0
bin	-14	0
bin	-13	0
bin	-12	0
bin	-11	0
bin	-10	0
bin	-9	0
bin	-8	0
bin	-7	0
bin	-6	0
bin	-5	0
bin	-4	0
bin	-3	0
bin	-2	0
bin	-1	0
bin	0	1
bin	1	1
bin	2	2
bin	3	0
bin	4	0
bin	5	0
bin	6	0
bin	7	0
bin	8	0
bin	9	0
bin	10	8
bin	11	1
bin	12	1
bin	13	1
bin	14	1
bin	15	1
bin	16	1
bin	17	1
bin	18	1
bin	19	1
bin	20	1
bin	21	1
bin	22	1
bin	23	1
bin	24	1
bin	25	1
bin	26	1
bin	27	1
bin	28	1
bin	29	1
bin	30	2
bin	31	0
bin	32	0
bin	33	0
bin	34	0
bin	35	0
bin	36	0
bin	37	0
bin	38	8
bin	39	1
bin	40	1
bin	41	1
bin	42	1
bin	43	2
bin	44	0
bin	45	0
bin	46	0
bin	47	0
bin	48	0
bin	49	0
bin	50	0
bin	51	8
bin	52	1
bin	53	1
bin	54	1
bin	55	1
bin	56	2
bin	57	0
bin	58	0
bin	59	0
bin	60	0
bin	61	0
bin	62	0
bin	63	0
bin	64	8
bin	65	1
bin	66	1
bin	67	1
bin	68	1
bin	69	1
bin	70	1
bin	71	1
bin	72	1
bin	73	1
bin	74	1
bin	75	1
bin	76	1
bin	77	1
bin	78	1
bin	79	1
bin	80	1
bin	81	1
bin	82	1
bin	83	1
bin	84	2
bin	85	0
bin	86	0
bin	87	0
bin	88	0
bin	89	0
bin	90	0
bin	91	0
bin	92	8
bin	93	1
bin	94	1
bin	95	1
bin	96	1
bin	97	1
bin	98	1
bin	99	1
bin	100	1
bin	101	1
bin	102	1
bin	103	1
bin	104	1
bin	105	2
bin	106	1
bin	107	1
bin	108	1
bin	109	1
bin	110	1
bin	111	1
bin	112	1
bin	113	1
bin	114	1
bin	115	1
bin	116	1
bin	117	1
bin	118	1
bin	119	1
bin	120	1
bin	121	1
bin	122	1
bin	123	1
bin	124	1
bin	125	1
bin	126	1
bin	127	1
bin	128	1
bin	129	1
bin	130	1
bin	131	1
bin	132	1
bin	133	1
bin	134	1
bin	135	1
bin	136	1
bin	137	2
bin	138	1
bin	139	1
bin	140	1
bin	141	275
scalar SimphonyDHTNetwork.members[21] 	#packetsInTheNetwork 	471
statistic SimphonyDHTNetwork.members[21] 	"packets statistics"
field count 499
field mean 236.95591182365
field stddev 135.86572799752
field sum 118241
field sqrsum 37210733
field min 0
field max 470
attr type  int
bin	-INF	0
bin	-48	0
bin	-47	0
bin	-46	0
bin	-45	0
bin	-44	0
bin	-43	0
bin	-42	0
bin	-41	0
bin	-40	0
bin	-39	0
bin	-38	0
bin	-37	0
bin	-36	0
bin	-35	0
bin	-34	0
bin	-33	0
bin	-32	0
bin	-31	0
bin	-30	0
bin	-29	0
bin	-28	0
bin	-27	0
bin	-26	0
bin	-25	0
bin	-24	0
bin	-23	0
bin	-22	0
bin	-21	0
bin	-20	0
bin	-19	0
bin	-18	0
bin	-17	0
bin	-16	0
bin	-15	0
bin	-14	0
bin	-13	0
bin	-12	0
bin	-11	0
bin	-10	0
bin	-9	0
bin	-8	0
bin	-7	0
bin	-6	0
bin	-5	0
bin	-4	0
bin	-3	0
bin	-2	0
bin	-1	0
bin	0	1
bin	1	1
bin	2	1
bin	3	1
bin	4	1
bin	5	1
bin	6	1
bin	7	2
bin	8	0
bin	9	0
bin	10	0
bin	11	0
bin	12	0
bin	13	0
bin	14	0
bin	15	8
bin	16	1
bin	17	1
bin	18	1
bin	19	1
bin	20	1
bin	21	1
bin	22	1
bin	23	1
bin	24	1
bin	25	1
bin	26	1
bin	27	1
bin	28	1
bin	29	1
bin	30	2
bin	31	0
bin	32	0
bin	33	0
bin	34	0
bin	35	0
bin	36	0
bin	37	0
bin	38	8
bin	39	1
bin	40	1
bin	41	1
bin	42	1
bin	43	1
bin	44	1
bin	45	1
bin	46	1
bin	47	1
bin	48	1
bin	49	1
bin	50	1
bin	51	1
bin	52	1
bin	53	1
bin	54	1
bin	55	1
bin	56	1
bin	57	1
bin	58	1
bin	59	1
bin	60	1
bin	61	1
bin	62	1
bin	63	1
bin	64	2
bin	65	0
bin	66	0
bin	67	0
bin	68	0
bin	69	0
bin	70	0
bin	71	0
bin	72	8
bin	73	1
bin	74	1
bin	75	1
bin	76	1
bin	77	2
bin	78	0
bin	79	0
bin	80	0
bin	81	0
bin	82	0
bin	83	0
bin	84	0
bin	85	8
bin	86	1
bin	87	1
bin	88	1
bin	89	1
bin	90	1
bin	91	1
bin	92	1
bin	93	1
bin	94	1
bin	95	1
bin	96	2
bin	97	0
bin	98	0
bin	99	0
bin	100	0
bin	101	0
bin	102	0
bin	103	0
bin	104	8
bin	105	1
bin	106	1
bin	107	1
bin	108	2
bin	109	0
bin	110	0
bin	111	0
bin	112	0
bin	113	0
bin	114	0
bin	115	0
bin	116	1
bin	117	8
bin	118	1
bin	119	2
bin	120	0
bin	121	0
bin	122	0
bin	123	0
bin	124	0
bin	125	0
bin	126	0
bin	127	1
bin	128	8
bin	129	1
bin	130	1
bin	131	1
bin	132	1
bin	133	2
bin	134	0
bin	135	0
bin	136	0
bin	137	0
bin	138	0
bin	139	0
bin	140	0
bin	141	8
bin	142	1
bin	143	348
scalar SimphonyDHTNetwork.members[22] 	#packetsInTheNetwork 	355
statistic SimphonyDHTNetwork.members[22] 	"packets statistics"
field count 375
field mean 178.64266666667
field stddev 102.20026106549
field sum 66991
field sqrsum 15873841
field min 0
field max 354
attr type  int
bin	-INF	0
bin	-48	0
bin	-47	0
bin	-46	0
bin	-45	0
bin	-44	0
bin	-43	0
bin	-42	0
bin	-41	0
bin	-40	0
bin	-39	0
bin	-38	0
bin	-37	0
bin	-36	0
bin	-35	0
bin	-34	0
bin	-33	0
bin	-32	0
bin	-31	0
bin	-30	0
bin	-29	0
bin	-28	0
bin	-27	0
bin	-26	0
bin	-25	0
bin	-24	0
bin	-23	0
bin	-22	0
bin	-21	0
bin	-20	0
bin	-19	0
bin	-18	0
bin	-17	0
bin	-16	0
bin	-15	0
bin	-14	0
bin	-13	0
bin	-12	0
bin	-11	0
bin	-10	0
bin	-9	0
bin	-8	0
bin	-7	0
bin	-6	0
bin	-5	0
bin	-4	0
bin	-3	0
bin	-2	0
bin	-1	0
bin	0	1
bin	1	1
bin	2	1
bin	3	1
bin	4	1
bin	5	1
bin	6	1
bin	7	1
bin	8	1
bin	9	1
bin	10	1
bin	11	1
bin	12	1
bin	13	1
bin	14	0
bin	15	2
bin	16	0
bin	17	0
bin	18	0
bin	19	0
bin	20	0
bin	21	0
bin	22	0
bin	23	8
bin	24	1
bin	25	2
bin	26	1
bin	27	1
bin	28	1
bin	29	1
bin	30	1
bin	31	1
bin	32	1
bin	33	1
bin	34	1
bin	35	1
bin	36	1
bin	37	1
bin	38	1
bin	39	1
bin	40	1
bin	41	1
bin	42	1
bin	43	1
bin	44	1
bin	45	1
bin	46	1
bin	47	1
bin	48	1
bin	49	1
bin	50	1
bin	51	1
bin	52	1
bin	53	1
bin	54	2
bin	55	0
bin	56	0
bin	57	0
bin	58	0
bin	59	0
bin	60	0
bin	61	0
bin	62	8
bin	63	1
bin	64	1
bin	65	1
bin	66	1
bin	67	1
bin	68	1
bin	69	1
bin	70	1
bin	71	2
bin	72	0
bin	73	0
bin	74	0
bin	75	0
bin	76	0
bin	77	0
bin	78	0
bin	79	8
bin	80	1
bin	81	1
bin	82	1
bin	83	1
bin	84	1
bin	85	1
bin	86	1
bin	87	2
bin	88	0
bin	89	0
bin	90	0
bin	91	0
bin	92	0
bin	93	0
bin	94	7
bin	95	1
bin	96	1
bin	97	1
bin	98	1
bin	99	1
bin	100	1
bin	101	1
bin	102	1
bin	103	1
bin	104	1
bin	105	1
bin	106	1
bin	107	1
bin	108	1
bin	109	1
bin	110	1
bin	111	1
bin	112	1
bin	113	1
bin	114	1
bin	115	1
bin	116	1
bin	117	1
bin	118	1
bin	119	1
bin	120	1
bin	121	1
bin	122	2
bin	123	0
bin	124	0
bin	125	0
bin	126	0
bin	127	0
bin	128	0
bin	129	7
bin	130	1
bin	131	1
bin	132	1
bin	133	1
bin	134	1
bin	135	2
bin	136	2
bin	137	1
bin	138	1
bin	139	2
bin	140	0
bin	141	0
bin	142	0
bin	143	227
scalar SimphonyDHTNetwork.members[23] 	#packetsInTheNetwork 	340
statistic SimphonyDHTNetwork.members[23] 	"packets statistics"
field count 362
field mean 170.52762430939
field stddev 98.122291041978
field sum 61731
field sqrsum 14002543
field min 0
field max 339
attr type  int
bin	-INF	0
bin	-47	0
bin	-46	0
bin	-45	0
bin	-44	0
bin	-43	0
bin	-42	0
bin	-41	0
bin	-40	0
bin	-39	0
bin	-38	0
bin	-37	0
bin	-36	0
bin	-35	0
bin	-34	0
bin	-33	0
bin	-32	0
bin	-31	0
bin	-30	0
bin	-29	0
bin	-28	0
bin	-27	0
bin	-26	0
bin	-25	0
bin	-24	0
bin	-23	0
bin	-22	0
bin	-21	0
bin	-20	0
bin	-19	0
bin	-18	0
bin	-17	0
bin	-16	0
bin	-15	0
bin	-14	0
bin	-13	0
bin	-12	0
bin	-11	0
bin	-10	0
bin	-9	0
bin	-8	0
bin	-7	0
bin	-6	0
bin	-5	0
bin	-4	0
bin	-3	0
bin	-2	0
bin	-1	0
bin	0	1
bin	1	1
bin	2	1
bin	3	2
bin	4	0
bin	5	0
bin	6	0
bin	7	0
bin	8	0
bin	9	0
bin	10	0
bin	11	8
bin	12	1
bin	13	1
bin	14	1
bin	15	1
bin	16	1
bin	17	1
bin	18	1
bin	19	1
bin	20	1
bin	21	1
bin	22	1
bin	23	1
bin	24	1
bin	25	1
bin	26	1
bin	27	1
bin	28	1
bin	29	1
bin	30	1
bin	31	1
bin	32	1
bin	33	1
bin	34	1
bin	35	1
bin	36	2
bin	37	1
bin	38	1
bin	39	1
bin	40	1
bin	41	1
bin	42	1
bin	43	1
bin	44	1
bin	45	2
bin	46	0
bin	47	0
bin	48	0
bin	49	0
bin	50	0
bin	51	0
bin	52	0
bin	53	8
bin	54	1
bin	55	1
bin	56	1
bin	57	1
bin	58	2
bin	59	0
bin	60	0
bin	61	0
bin	62	0
bin	63	0
bin	64	0
bin	65	0
bin	66	8
bin	67	1
bin	68	1
bin	69	1
bin	70	1
bin	71	1
bin	72	1
bin	73	1
bin	74	1
bin	75	1
bin	76	2
bin	77	0
bin	78	0
bin	79	0
bin	80	0
bin	81	0
bin	82	0
bin	83	0
bin	84	8
bin	85	1
bin	86	1
bin	87	1
bin	88	1
bin	89	1
bin	90	2
bin	91	1
bin	92	1
bin	93	1
bin	94	1
bin	95	1
bin	96	1
bin	97	1
bin	98	1
bin	99	1
bin	100	1
bin	101	2
bin	102	0
bin	103	0
bin	104	0
bin	105	0
bin	106	0
bin	107	0
bin	108	7
bin	109	1
bin	110	1
bin	111	1
bin	112	1
bin	113	1
bin	114	1
bin	115	1
bin	116	1
bin	117	1
bin	118	1
bin	119	1
bin	120	1
bin	121	1
bin	122	1
bin	123	1
bin	124	1
bin	125	1
bin	126	1
bin	127	2
bin	128	0
bin	129	0
bin	130	0
bin	131	0
bin	132	0
bin	133	0
bin	134	7
bin	135	1
bin	136	1
bin	137	1
bin	138	0
bin	139	2
bin	140	214
scalar SimphonyDHTNetwork.members[24] 	#packetsInTheNetwork 	313
statistic SimphonyDHTNetwork.members[24] 	"packets statistics"
field count 331
field mean 157.32628398792
field stddev 90.292802514078
field sum 52075
field sqrsum 10883187
field min 0
field max 312
attr type  int
bin	-INF	0
bin	-47	0
bin	-46	0
bin	-45	0
bin	-44	0
bin	-43	0
bin	-42	0
bin	-41	0
bin	-40	0
bin	-39	0
bin	-38	0
bin	-37	0
bin	-36	0
bin	-35	0
bin	-34	0
bin	-33	0
bin	-32	0
bin	-31	0
bin	-30	0
bin	-29	0
bin	-28	0
bin	-27	0
bin	-26	0
bin	-25	0
bin	-24	0
bin	-23	0
bin	-22	0
bin	-21	0
bin	-20	0
bin	-19	0
bin	-18	0
bin	-17	0
bin	-16	0
bin	-15	0
bin	-14	0
bin	-13	0
bin	-12	0
bin	-11	0
bin	-10	0
bin	-9	0
bin	-8	0
bin	-7	0
bin	-6	0
bin	-5	0
bin	-4	0
bin	-3	0
bin	-2	0
bin	-1	0
bin	0	1
bin	1	1
bin	2	1
bin	3	1
bin	4	1
bin	5	1
bin	6	1
bin	7	1
bin	8	1
bin	9	1
bin	10	1
bin	11	1
bin	12	1
bin	13	1
bin	14	1
bin	15	1
bin	16	1
bin	17	1
bin	18	1
bin	19	1
bin	20	1
bin	21	1
bin	22	1
bin	23	2
bin	24	0
bin	25	0
bin	26	0
bin	27	0
bin	28	0
bin	29	0
bin	30	0
bin	31	8
bin	32	1
bin	33	1
bin	34	1
bin	35	1
bin	36	1
bin	37	1
bin	38	1
bin	39	1
bin	40	1
bin	41	1
bin	42	1
bin	43	1
bin	44	2
bin	45	0
bin	46	0
bin	47	0
bin	48	0
bin	49	0
bin	50	0
bin	51	0
bin	52	8
bin	53	1
bin	54	1
bin	55	1
bin	56	1
bin	57	1
bin	58	1
bin	59	1
bin	60	1
bin	61	1
bin	62	1
bin	63	1
bin	64	1
bin	65	1
bin	66	1
bin	67	1
bin	68	1
bin	69	1
bin	70	2
bin	71	1
bin	72	1
bin	73	1
bin	74	1
bin	75	2
bin	76	0
bin	77	0
bin	78	0
bin	79	0
bin	80	0
bin	81	0
bin	82	7
bin	83	1
bin	84	1
bin	85	1
bin	86	1
bin	87	1
bin	88	1
bin	89	2
bin	90	1
bin	91	1
bin	92	1
bin	93	2
bin	94	0
bin	95	0
bin	96	0
bin	97	0
bin	98	0
bin	99	0
bin	100	0
bin	101	8
bin	102	1
bin	103	1
bin	104	1
bin	105	1
bin	106	1
bin	107	1
bin	108	1
bin	109	1
bin	110	1
bin	111	1
bin	112	1
bin	113	1
bin	114	2
bin	115	1
bin	116	1
bin	117	1
bin	118	1
bin	119	1
bin	120	1
bin	121	1
bin	122	1
bin	123	1
bin	124	1
bin	125	1
bin	126	1
bin	127	1
bin	128	1
bin	129	2
bin	130	0
bin	131	0
bin	132	0
bin	133	0
bin	134	0
bin	135	0
bin	136	0
bin	137	8
bin	138	1
bin	139	1
bin	140	183
scalar SimphonyDHTNetwork.members[25] 	#packetsInTheNetwork 	328
statistic SimphonyDHTNetwork.members[25] 	"packets statistics"
field count 350
field mean 164.57714285714
field stddev 94.326862924499
field sum 57602
field sqrsum 12585220
field min 0
field max 327
attr type  int
bin	-INF	0
bin	-49	0
bin	-48	0
bin	-47	0
bin	-46	0
bin	-45	0
bin	-44	0
bin	-43	0
bin	-42	0
bin	-41	0
bin	-40	0
bin	-39	0
bin	-38	0
bin	-37	0
bin	-36	0
bin	-35	0
bin	-34	0
bin	-33	0
bin	-32	0
bin	-31	0
bin	-30	0
bin	-29	0
bin	-28	0
bin	-27	0
bin	-26	0
bin	-25	0
bin	-24	0
bin	-23	0
bin	-22	0
bin	-21	0
bin	-20	0
bin	-19	0
bin	-18	0
bin	-17	0
bin	-16	0
bin	-15	0
bin	-14	0
bin	-13	0
bin	-12	0
bin	-11	0
bin	-10	0
bin	-9	0
bin	-8	0
bin	-7	0
bin	-6	0
bin	-5	0
bin	-4	0
bin	-3	0
bin	-2	0
bin	-1	0
bin	0	1
bin	1	1
bin	2	1
bin	3	1
bin	4	1
bin	5	1
bin	6	2
bin	7	1
bin	8	1
bin	9	1
bin	10	1
bin	11	1
bin	12	1
bin	13	1
bin	14	1
bin	15	1
bin	16	1
bin	17	1
bin	18	1
bin	19	1
bin	20	1
bin	21	2
bin	22	0
bin	23	0
bin	24	0
bin	25	0
bin	26	0
bin	27	0
bin	28	0
bin	29	8
bin	30	1
bin	31	1
bin	32	1
bin	33	1
bin	34	1
bin	35	1
bin	36	1
bin	37	1
bin	38	1
bin	39	1
bin	40	1
bin	41	1
bin	42	1
bin	43	1
bin	44	1
bin	45	2
bin	46	0
bin	47	0
bin	48	0
bin	49	0
bin	50	0
bin	51	0
bin	52	0
bin	53	8
bin	54	1
bin	55	1
bin	56	1
bin	57	1
bin	58	2
bin	59	0
bin	60	0
bin	61	0
bin	62	0
bin	63	0
bin	64	0
bin	65	0
bin	66	8
bin	67	1
bin	68	1
bin	69	1
bin	70	1
bin	71	2
bin	72	0
bin	73	0
bin	74	0
bin	75	0
bin	76	0
bin	77	0
bin	78	0
bin	79	8
bin	80	1
bin	81	1
bin	82	1
bin	83	1
bin	84	1
bin	85	1
bin	86	1
bin	87	1
bin	88	1
bin	89	1
bin	90	2
bin	91	0
bin	92	0
bin	93	0
bin	94	0
bin	95	0
bin	96	0
bin	97	0
bin	98	8
bin	99	1
bin	100	1
bin	101	1
bin	102	1
bin	103	1
bin	104	1
bin	105	1
bin	106	1
bin	107	2
bin	108	0
bin	109	0
bin	110	0
bin	111	0
bin	112	0
bin	113	0
bin	114	0
bin	115	8
bin	116	1
bin	117	1
bin	118	1
bin	119	2
bin	120	0
bin	121	0
bin	122	0
bin	123	0
bin	124	0
bin	125	0
bin	126	0
bin	127	8
bin	128	1
bin	129	1
bin	130	1
bin	131	1
bin	132	2
bin	133	0
bin	134	0
bin	135	0
bin	136	0
bin	137	0
bin	138	0
bin	139	0
bin	140	8
bin	141	1
bin	142	1
bin	143	1
bin	144	1
bin	145	1
bin	146	2
bin	147	193
scalar SimphonyDHTNetwork.members[26] 	#packetsInTheNetwork 	293
statistic SimphonyDHTNetwork.members[26] 	"packets statistics"
field count 312
field mean 147.66346153846
field stddev 84.57154476988
field sum 46071
field sqrsum 9027383
field min 0
field max 292
attr type  int
bin	-INF	0
bin	-48	0
bin	-47	0
bin	-46	0
bin	-45	0
bin	-44	0
bin	-43	0
bin	-42	0
bin	-41	0
bin	-40	0
bin	-39	0
bin	-38	0
bin	-37	0
bin	-36	0
bin	-35	0
bin	-34	0
bin	-33	0
bin	-32	0
bin	-31	0
bin	-30	0
bin	-29	0
bin	-28	0
bin	-27	0
bin	-26	0
bin	-25	0
bin	-24	0
bin	-23	0
bin	-22	0
bin	-21	0
bin	-20	0
bin	-19	0
bin	-18	0
bin	-17	0
bin	-16	0
bin	-15	0
bin	-14	0
bin	-13	0
bin	-12	0
bin	-11	0
bin	-10	0
bin	-9	0
bin	-8	0
bin	-7	0
bin	-6	0
bin	-5	0
bin	-4	0
bin	-3	0
bin	-2	0
bin	-1	0
bin	0	1
bin	1	1
bin	2	1
bin	3	1
bin	4	1
bin	5	1
bin	6	1
bin	7	1
bin	8	1
bin	9	1
bin	10	1
bin	11	1
bin	12	1
bin	13	1
bin	14	1
bin	15	1
bin	16	1
bin	17	2
bin	18	1
bin	19	1
bin	20	1
bin	21	1
bin	22	1
bin	23	1
bin	24	1
bin	25	1
bin	26	1
bin	27	1
bin	28	1
bin	29	1
bin	30	1
bin	31	1
bin	32	1
bin	33	1
bin	34	1
bin	35	1
bin	36	1
bin	37	1
bin	38	1
bin	39	1
bin	40	2
bin	41	0
bin	42	0
bin	43	0
bin	44	0
bin	45	0
bin	46	0
bin	47	0
bin	48	8
bin	49	1
bin	50	1
bin	51	1
bin	52	1
bin	53	1
bin	54	1
bin	55	1
bin	56	1
bin	57	1
bin	58	1
bin	59	1
bin	60	1
bin	61	2
bin	62	0
bin	63	0
bin	64	0
bin	65	0
bin	66	0
bin	67	0
bin	68	0
bin	69	8
bin	70	1
bin	71	1
bin	72	1
bin	73	1
bin	74	1
bin	75	2
bin	76	0
bin	77	0
bin	78	0
bin	79	0
bin	80	0
bin	81	0
bin	82	0
bin	83	8
bin	84	1
bin	85	1
bin	86	1
bin	87	1
bin	88	1
bin	89	1
bin	90	1
bin	91	1
bin	92	1
bin	93	1
bin	94	0
bin	95	2
bin	96	0
bin	97	0
bin	98	0
bin	99	0
bin	100	0
bin	101	0
bin	102	0
bin	103	8
bin	104	1
bin	105	2
bin	106	1
bin	107	1
bin	108	1
bin	109	1
bin	110	1
bin	111	1
bin	112	2
bin	113	1
bin	114	2
bin	115	2
bin	116	1
bin	117	1
bin	118	1
bin	119	1
bin	120	1
bin	121	1
bin	122	1
bin	123	2
bin	124	0
bin	125	0
bin	126	0
bin	127	0
bin	128	0
bin	129	0
bin	130	0
bin	131	8
bin	132	1
bin	133	1
bin	134	1
bin	135	1
bin	136	2
bin	137	0
bin	138	0
bin	139	0
bin	140	0
bin	141	0
bin	142	0
bin	143	165
scalar SimphonyDHTNetwork.members[27] 	#packetsInTheNetwork 	365
statistic SimphonyDHTNetwork.members[27] 	"packets statistics"
field count 394
field mean 184.81472081218
field stddev 105.44756755302
field sum 72817
field sqrsum 17827495
field min 0
field max 364
attr type  int
bin	-INF	0
bin	-49	0
bin	-48	0
bin	-47	0
bin	-46	0
bin	-45	0
bin	-44	0
bin	-43	0
bin	-42	0
bin	-41	0
bin	-40	0
bin	-39	0
bin	-38	0
bin	-37	0
bin	-36	0
bin	-35	0
bin	-34	0
bin	-33	0
bin	-32	0
bin	-31	0
bin	-30	0
bin	-29	0
bin	-28	0
bin	-27	0
bin	-26	0
bin	-25	0
bin	-24	0
bin	-23	0
bin	-22	0
bin	-21	0
bin	-20	0
bin	-19	0
bin	-18	0
bin	-17	0
bin	-16	0
bin	-15	0
bin	-14	0
bin	-13	0
bin	-12	0
bin	-11	0
bin	-10	0
bin	-9	0
bin	-8	0
bin	-7	0
bin	-6	0
bin	-5	0
bin	-4	0
bin	-3	0
bin	-2	0
bin	-1	0
bin	0	1
bin	1	1
bin	2	1
bin	3	1
bin	4	0
bin	5	2
bin	6	0
bin	7	0
bin	8	0
bin	9	0
bin	10	0
bin	11	0
bin	12	0
bin	13	8
bin	14	1
bin	15	2
bin	16	1
bin	17	1
bin	18	1
bin	19	1
bin	20	1
bin	21	1
bin	22	1
bin	23	1
bin	24	1
bin	25	1
bin	26	1
bin	27	1
bin	28	1
bin	29	1
bin	30	1
bin	31	2
bin	32	1
bin	33	1
bin	34	1
bin	35	1
bin	36	1
bin	37	1
bin	38	1
bin	39	1
bin	40	2
bin	41	0
bin	42	0
bin	43	0
bin	44	0
bin	45	0
bin	46	0
bin	47	0
bin	48	8
bin	49	1
bin	50	1
bin	51	1
bin	52	1
bin	53	2
bin	54	0
bin	55	0
bin	56	0
bin	57	0
bin	58	0
bin	59	0
bin	60	0
bin	61	8
bin	62	1
bin	63	1
bin	64	1
bin	65	1
bin	66	1
bin	67	1
bin	68	1
bin	69	1
bin	70	1
bin	71	1
bin	72	1
bin	73	1
bin	74	1
bin	75	1
bin	76	2
bin	77	0
bin	78	0
bin	79	0
bin	80	0
bin	81	0
bin	82	0
bin	83	0
bin	84	8
bin	85	1
bin	86	1
bin	87	1
bin	88	1
bin	89	2
bin	90	0
bin	91	0
bin	92	0
bin	93	0
bin	94	0
bin	95	0
bin	96	0
bin	97	8
bin	98	1
bin	99	1
bin	100	1
bin	101	2
bin	102	0
bin	103	0
bin	104	0
bin	105	0
bin	106	0
bin	107	0
bin	108	0
bin	109	8
bin	110	1
bin	111	1
bin	112	1
bin	113	1
bin	114	1
bin	115	1
bin	116	1
bin	117	1
bin	118	1
bin	119	1
bin	120	1
bin	121	1
bin	122	1
bin	123	1
bin	124	1
bin	125	1
bin	126	1
bin	127	1
bin	128	2
bin	129	0
bin	130	0
bin	131	0
bin	132	0
bin	133	0
bin	134	0
bin	135	0
bin	136	8
bin	137	1
bin	138	1
bin	139	1
bin	140	1
bin	141	1
bin	142	1
bin	143	1
bin	144	1
bin	145	1
bin	146	240
scalar SimphonyDHTNetwork.members[28] 	#packetsInTheNetwork 	372
statistic SimphonyDHTNetwork.members[28] 	"packets statistics"
field count 405
field mean 188.61728395062
field stddev 107.83769982017
field sum 76390
field sqrsum 19106578
field min 0
field max 371
attr type  int
bin	-INF	0
bin	-47	0
bin	-46	0
bin	-45	0
bin	-44	0
bin	-43	0
bin	-42	0
bin	-41	0
bin	-40	0
bin	-39	0
bin	-38	0
bin	-37	0
bin	-36	0
bin	-35	0
bin	-34	0
bin	-33	0
bin	-32	0
bin	-31	0
bin	-30	0
bin	-29	0
bin	-28	0
bin	-27	0
bin	-26	0
bin	-25	0
bin	-24	0
bin	-23	0
bin	-22	0
bin	-21	0
bin	-20	0
bin	-19	0
bin	-18	0
bin	-17	0
bin	-16	0
bin	-15	0
bin	-14	0
bin	-13	0
bin	-12	0
bin	-11	0
bin	-10	0
bin	-9	0
bin	-8	0
bin	-7	0
bin	-6	0
bin	-5	0
bin	-4	0
bin	-3	0
bin	-2	0
bin	-1	0
bin	0	1
bin	1	1
bin	2	1
bin	3	1
bin	4	1
bin	5	1
bin	6	1
bin	7	1
bin	8	1
bin	9	1
bin	10	2
bin	11	1
bin	12	1
bin	13	1
bin	14	1
bin	15	1
bin	16	1
bin	17	1
bin	18	1
bin	19	1
bin	20	1
bin	21	1
bin	22	2
bin	23	1
bin	24	1
bin	25	1
bin	26	2
bin	27	0
bin	28	0
bin	29	0
bin	30	0
bin	31	0
bin	32	0
bin	33	0
bin	34	8
bin	35	1
bin	36	1
bin	37	1
bin	38	1
bin	39	1
bin	40	1
bin	41	1
bin	42	1
bin	43	1
bin	44	1
bin	45	1
bin	46	1
bin	47	1
bin	48	1
bin	49	1
bin	50	1
bin	51	1
bin	52	1
bin	53	1
bin	54	2
bin	55	0
bin	56	0
bin	57	0
bin	58	0
bin	59	0
bin	60	0
bin	61	0
bin	62	8
bin	63	1
bin	64	1
bin	65	1
bin	66	1
bin	67	1
bin	68	1
bin	69	1
bin	70	1
bin	71	1
bin	72	1
bin	73	0
bin	74	2
bin	75	0
bin	76	0
bin	77	0
bin	78	0
bin	79	0
bin	80	0
bin	81	0
bin	82	8
bin	83	1
bin	84	2
bin	85	1
bin	86	1
bin	87	1
bin	88	1
bin	89	1
bin	90	1
bin	91	1
bin	92	1
bin	93	1
bin	94	1
bin	95	1
bin	96	1
bin	97	1
bin	98	1
bin	99	1
bin	100	1
bin	101	1
bin	102	1
bin	103	1
bin	104	2
bin	105	0
bin	106	0
bin	107	0
bin	108	0
bin	109	0
bin	110	0
bin	111	0
bin	112	8
bin	113	1
bin	114	1
bin	115	1
bin	116	1
bin	117	1
bin	118	1
bin	119	1
bin	120	1
bin	121	1
bin	122	2
bin	123	1
bin	124	1
bin	125	1
bin	126	2
bin	127	1
bin	128	2
bin	129	2
bin	130	1
bin	131	1
bin	132	1
bin	133	1
bin	134	1
bin	135	2
bin	136	0
bin	137	0
bin	138	0
bin	139	0
bin	140	0
bin	141	258
scalar SimphonyDHTNetwork.members[29] 	#packetsInTheNetwork 	435
statistic SimphonyDHTNetwork.members[29] 	"packets statistics"
field count 470
field mean 219.78936170213
field stddev 124.9237221153
field sum 103301
field sqrsum 30023645
field min 0
field max 434
attr type  int
bin	-INF	0
bin	-50	0
bin	-49	0
bin	-48	0
bin	-47	0
bin	-46	0
bin	-45	0
bin	-44	0
bin	-43	0
bin	-42	0
bin	-41	0
bin	-40	0
bin	-39	0
bin	-38	0
bin	-37	0
bin	-36	0
bin	-35	0
bin	-34	0
bin	-33	0
bin	-32	0
bin	-31	0
bin	-30	0
bin	-29	0
bin	-28	0
bin	-27	0
bin	-26	0
bin	-25	0
bin	-24	0
bin	-23	0
bin	-22	0
bin	-21	0
bin	-20	0
bin	-19	0
bin	-18	0
bin	-17	0
bin	-16	0
bin	-15	0
bin	-14	0
bin	-13	0
bin	-12	0
bin	-11	0
bin	-10	0
bin	-9	0
bin	-8	0
bin	-7	0
bin	-6	0
bin	-5	0
bin	-4	0
bin	-3	0
bin	-2	0
bin	-1	0
bin	0	1
bin	1	1
bin	2	1
bin	3	1
bin	4	1
bin	5	1
bin	6	1
bin	7	1
bin	8	2
bin	9	0
bin	10	0
bin	11	0
bin	12	0
bin	13	0
bin	14	0
bin	15	0
bin	16	8
bin	17	1
bin	18	1
bin	19	1
bin	20	1
bin	21	1
bin	22	1
bin	23	1
bin	24	1
bin	25	1
bin	26	1
bin	27	1
bin	28	1
bin	29	1
bin	30	1
bin	31	1
bin	32	1
bin	33	2
bin	34	0
bin	35	0
bin	36	0
bin	37	0
bin	38	0
bin	39	0
bin	40	0
bin	41	8
bin	42	1
bin	43	1
bin	44	1
bin	45	1
bin	46	2
bin	47	0
bin	48	0
bin	49	0
bin	50	0
bin	51	0
bin	52	0
bin	53	0
bin	54	8
bin	55	1
bin	56	1
bin	57	1
bin	58	1
bin	59	2
bin	60	0
bin	61	0
bin	62	0
bin	63	0
bin	64	0
bin	65	0
bin	66	0
bin	67	8
bin	68	1
bin	69	1
bin	70	1
bin	71	1
bin	72	1
bin	73	1
bin	74	1
bin	75	1
bin	76	1
bin	77	1
bin	78	1
bin	79	1
bin	80	1
bin	81	1
bin	82	1
bin	83	1
bin	84	1
bin	85	1
bin	86	1
bin	87	2
bin	88	1
bin	89	1
bin	90	0
bin	91	2
bin	92	0
bin	93	0
bin	94	0
bin	95	0
bin	96	0
bin	97	0
bin	98	0
bin	99	8
bin	100	1
bin	101	2
bin	102	1
bin	103	1
bin	104	2
bin	105	1
bin	106	1
bin	107	1
bin	108	1
bin	109	1
bin	110	1
bin	111	1
bin	112	1
bin	113	1
bin	114	1
bin	115	1
bin	116	1
bin	117	1
bin	118	1
bin	119	1
bin	120	2
bin	121	0
bin	122	0
bin	123	0
bin	124	0
bin	125	0
bin	126	0
bin	127	0
bin	128	8
bin	129	1
bin	130	1
bin	131	1
bin	132	1
bin	133	2
bin	134	0
bin	135	0
bin	136	0
bin	137	0
bin	138	0
bin	139	0
bin	140	0
bin	141	8
bin	142	1
bin	143	1
bin	144	1
bin	145	1
bin	146	2
bin	147	0
bin	148	0
bin	149	313
scalar SimphonyDHTNetwork.members[30] 	#packetsInTheNetwork 	492
statistic SimphonyDHTNetwork.members[30] 	"packets statistics"
field count 525
field mean 246.09714285714
field stddev 142.6386565654
field sum 129201
field sqrsum 42457189
field min 0
field max 491
attr type  int
bin	-INF	0
bin	-46	0
bin	-45	0
bin	-44	0
bin	-43	0
bin	-42	0
bin	-41	0
bin	-40	0
bin	-39	0
bin	-38	0
bin	-37	0
bin	-36	0
bin	-35	0
bin	-34	0
bin	-33	0
bin	-32	0
bin	-31	0
bin	-30	0
bin	-29	0
bin	-28	0
bin	-27	0
bin	-26	0
bin	-25	0
bin	-24	0
bin	-23	0
bin	-22	0
bin	-21	0
bin	-20	0
bin	-19	0
bin	-18	0
bin	-17	0
bin	-16	0
bin	-15	0
bin	-14	0
bin	-13	0
bin	-12	0
bin	-11	0
bin	-10	0
bin	-9	0
bin	-8	0
bin	-7	0
bin	-6	0
bin	-5	0
bin	-4	0
bin	-3	0
bin	-2	0
bin	-1	0
bin	0	1
bin	1	1
bin	2	2
bin	3	0
bin	4	0
bin	5	0
bin	6	0
bin	7	0
bin	8	0
bin	9	0
bin	10	8
bin	11	1
bin	12	1
bin	13	1
bin	14	1
bin	15	1
bin	16	1
bin	17	1
bin	18	1
bin	19	2
bin	20	0
bin	21	0
bin	22	0
bin	23	0
bin	24	0
bin	25	0
bin	26	0
bin	27	8
bin	28	1
bin	29	1
bin	30	1
bin	31	1
bin	32	1
bin	33	1
bin	34	1
bin	35	1
bin	36	2
bin	37	2
bin	38	1
bin	39	1
bin	40	2
bin	41	0
bin	42	0
bin	43	0
bin	44	0
bin	45	0
bin	46	0
bin	47	0
bin	48	8
bin	49	1
bin	50	1
bin	51	1
bin	52	1
bin	53	1
bin	54	2
bin	55	0
bin	56	0
bin	57	0
bin	58	0
bin	59	0
bin	60	0
bin	61	0
bin	62	8
bin	63	1
bin	64	1
bin	65	1
bin	66	1
bin	67	1
bin	68	1
bin	69	1
bin	70	2
bin	71	0
bin	72	0
bin	73	0
bin	74	0
bin	75	0
bin	76	0
bin	77	0
bin	78	8
bin	79	1
bin	80	1
bin	81	1
bin	82	1
bin	83	1
bin	84	2
bin	85	0
bin	86	0
bin	87	0
bin	88	0
bin	89	0
bin	90	0
bin	91	0
bin	92	8
bin	93	1
bin	94	1
bin	95	1
bin	96	1
bin	97	1
bin	98	1
bin	99	2
bin	100	1
bin	101	1
bin	102	1
bin	103	1
bin	104	1
bin	105	1
bin	106	1
bin	107	1
bin	108	1
bin	109	1
bin	110	1
bin	111	1
bin	112	1
bin	113	1
bin	114	2
bin	115	0
bin	116	0
bin	117	0
bin	118	0
bin	119	0
bin	120	0
bin	121	0
bin	122	8
bin	123	1
bin	124	1
bin	125	1
bin	126	1
bin	127	1
bin	128	1
bin	129	1
bin	130	2
bin	131	0
bin	132	0
bin	133	0
bin	134	0
bin	135	0
bin	136	0
bin	137	0
bin	138	383
scalar SimphonyDHTNetwork.members[31] 	#packetsInTheNetwork 	519
statistic SimphonyDHTNetwork.members[31] 	"packets statistics"
field count 560
field mean 260.99285714286
field stddev 151.15679151043
field sum 146156
field sqrsum 50917914
field min 0
field max 518
attr type  int
bin	-INF	0
bin	-45	0
bin	-44	0
bin	-43	0
bin	-42	0
bin	-41	0
bin	-40	0
bin	-39	0
bin	-38	0
bin	-37	0
bin	-36	0
bin	-35	0
bin	-34	0
bin	-33	0
bin	-32	0
bin	-31	0
bin	-30	0
bin	-29	0
bin	-28	0
bin	-27	0
bin	-26	0
bin	-25	0
bin	-24	0
bin	-23	0
bin	-22	0
bin	-21	0
bin	-20	0
bin	-19	0
bin	-18	0
bin	-17	0
bin	-16	0
bin	-15	0
bin	-14	0
bin	-13	0
bin	-12	0
bin	-11	0
bin	-10	0
bin	-9	0
bin	-8	0
bin	-7	0
bin	-6	0
bin	-5	0
bin	-4	0
bin	-3	0
bin	-2	0
bin	-1	0
bin	0	1
bin	1	1
bin	2	1
bin	3	1
bin	4	1
bin	5	2
bin	6	0
bin	7	0
bin	8	0
bin	9	0
bin	10	0
bin	11	0
bin	12	0
bin	13	8
bin	14	1
bin	15	1
bin	16	1
bin	17	1
bin	18	1
bin	19	2
bin	20	0
bin	21	0
bin	22	0
bin	23	0
bin	24	0
bin	25	0
bin	26	0
bin	27	8
bin	28	1
bin	29	1
bin	30	1
bin	31	1
bin	32	1
bin	33	1
bin	34	1
bin	35	2
bin	36	1
bin	37	2
bin	38	2
bin	39	1
bin	40	1
bin	41	1
bin	42	1
bin	43	1
bin	44	2
bin	45	0
bin	46	0
bin	47	0
bin	48	0
bin	49	0
bin	50	0
bin	51	0
bin	52	8
bin	53	1
bin	54	1
bin	55	1
bin	56	1
bin	57	1
bin	58	2
bin	59	0
bin	60	0
bin	61	0
bin	62	0
bin	63	0
bin	64	0
bin	65	0
bin	66	8
bin	67	1
bin	68	1
bin	69	1
bin	70	1
bin	71	1
bin	72	2
bin	73	1
bin	74	1
bin	75	1
bin	76	1
bin	77	1
bin	78	1
bin	79	1
bin	80	1
bin	81	1
bin	82	2
bin	83	0
bin	84	0
bin	85	0
bin	86	0
bin	87	0
bin	88	0
bin	89	0
bin	90	8
bin	91	1
bin	92	1
bin	93	1
bin	94	1
bin	95	1
bin	96	1
bin	97	2
bin	98	0
bin	99	0
bin	100	0
bin	101	0
bin	102	0
bin	103	0
bin	104	0
bin	105	8
bin	106	1
bin	107	1
bin	108	1
bin	109	1
bin	110	1
bin	111	1
bin	112	1
bin	113	1
bin	114	1
bin	115	2
bin	116	0
bin	117	0
bin	118	0
bin	119	0
bin	120	0
bin	121	0
bin	122	0
bin	123	1
bin	124	8
bin	125	1
bin	126	2
bin	127	0
bin	128	0
bin	129	0
bin	130	0
bin	131	0
bin	132	0
bin	133	0
bin	134	2
bin	135	419
scalar SimphonyDHTNetwork.members[32] 	#packetsInTheNetwork 	350
statistic SimphonyDHTNetwork.members[32] 	"packets statistics"
field count 372
field mean 176.02688172043
field stddev 100.88396007005
field sum 65482
field sqrsum 15302472
field min 0
field max 349
attr type  int
bin	-INF	0
bin	-47	0
bin	-46	0
bin	-45	0
bin	-44	0
bin	-43	0
bin	-42	0
bin	-41	0
bin	-40	0
bin	-39	0
bin	-38	0
bin	-37	0
bin	-36	0
bin	-35	0
bin	-34	0
bin	-33	0
bin	-32	0
bin	-31	0
bin	-30	0
bin	-29	0
bin	-28	0
bin	-27	0
bin	-26	0
bin	-25	0
bin	-24	0
bin	-23	0
bin	-22	0
bin	-21	0
bin	-20	0
bin	-19	0
bin	-18	0
bin	-17	0
bin	-16	0
bin	-15	0
bin	-14	0
bin	-13	0
bin	-12	0
bin	-11	0
bin	-10	0
bin	-9	0
bin	-8	0
bin	-7	0
bin	-6	0
bin	-5	0
bin	-4	0
bin	-3	0
bin	-2	0
bin	-1	0
bin	0	1
bin	1	1
bin	2	1
bin	3	1
bin	4	1
bin	5	1
bin	6	1
bin	7	1
bin	8	1
bin	9	1
bin	10	1
bin	11	1
bin	12	2
bin	13	0
bin	14	0
bin	15	0
bin	16	0
bin	17	0
bin	18	0
bin	19	0
bin	20	8
bin	21	1
bin	22	1
bin	23	1
bin	24	1
bin	25	1
bin	26	1
bin	27	2
bin	28	0
bin	29	0
bin	30	0
bin	31	0
bin	32	0
bin	33	0
bin	34	0
bin	35	8
bin	36	1
bin	37	1
bin	38	1
bin	39	1
bin	40	2
bin	41	0
bin	42	0
bin	43	0
bin	44	0
bin	45	0
bin	46	0
bin	47	0
bin	48	8
bin	49	1
bin	50	1
bin	51	1
bin	52	1
bin	53	1
bin	54	1
bin	55	2
bin	56	0
bin	57	0
bin	58	0
bin	59	0
bin	60	0
bin	61	0
bin	62	0
bin	63	8
bin	64	1
bin	65	1
bin	66	1
bin	67	1
bin	68	1
bin	69	2
bin	70	0
bin	71	0
bin	72	0
bin	73	0
bin	74	0
bin	75	0
bin	76	0
bin	77	8
bin	78	1
bin	79	1
bin	80	1
bin	81	1
bin	82	1
bin	83	1
bin	84	1
bin	85	1
bin	86	1
bin	87	1
bin	88	1
bin	89	1
bin	90	1
bin	91	1
bin	92	1
bin	93	1
bin	94	2
bin	95	1
bin	96	1
bin	97	1
bin	98	1
bin	99	2
bin	100	0
bin	101	0
bin	102	0
bin	103	0
bin	104	0
bin	105	0
bin	106	0
bin	107	8
bin	108	1
bin	109	1
bin	110	1
bin	111	1
bin	112	1
bin	113	1
bin	114	1
bin	115	1
bin	116	1
bin	117	1
bin	118	1
bin	119	1
bin	120	1
bin	121	1
bin	122	1
bin	123	1
bin	124	1
bin	125	1
bin	126	1
bin	127	1
bin	128	1
bin	129	1
bin	130	1
bin	131	1
bin	132	2
bin	133	0
bin	134	0
bin	135	0
bin	136	0
bin	137	0
bin	138	0
bin	139	7
bin	140	1
bin	141	223
scalar SimphonyDHTNetwork.members[33] 	#packetsInTheNetwork 	365
statistic SimphonyDHTNetwork.members[33] 	"packets statistics"
field count 393
field mean 183.38422391858
field stddev 105.50770092539
field sum 72070
field sqrsum 17580196
field min 0
field max 364
attr type  int
bin	-INF	0
bin	-49	0
bin	-48	0
bin	-47	0
bin	-46	0
bin	-45	0
bin	-44	0
bin	-43	0
bin	-42	0
bin	-41	0
bin	-40	0
bin	-39	0
bin	-38	0
bin	-37	0
bin	-36	0
bin	-35	0
bin	-34	0
bin	-33	0
bin	-32	0
bin	-31	0
bin	-30	0
bin	-29	0
bin	-28	0
bin	-27	0
bin	-26	0
bin	-25	0
bin	-24	0
bin	-23	0
bin	-22	0
bin	-21	0
bin	-20	0
bin	-19	0
bin	-18	0
bin	-17	0
bin	-16	0
bin	-15	0
bin	-14	0
bin	-13	0
bin	-12	0
bin	-11	0
bin	-10	0
bin	-9	0
bin	-8	0
bin	-7	0
bin	-6	0
bin	-5	0
bin	-4	0
bin	-3	0
bin	-2	0
bin	-1	0
bin	0	1
bin	1	1
bin	2	2
bin	3	0
bin	4	0
bin	5	0
bin	6	0
bin	7	0
bin	8	0
bin	9	0
bin	10	8
bin	11	1
bin	12	1
bin	13	1
bin	14	1
bin	15	2
bin	16	0
bin	17	0
bin	18	0
bin	19	0
bin	20	0
bin	21	0
bin	22	0
bin	23	8
bin	24	1
bin	25	1
bin	26	1
bin	27	1
bin	28	2
bin	29	1
bin	30	1
bin	31	2
bin	32	0
bin	33	0
bin	34	0
bin	35	0
bin	36	0
bin	37	0
bin	38	0
bin	39	8
bin	40	1
bin	41	1
bin	42	1
bin	43	1
bin	44	2
bin	45	0
bin	46	0
bin	47	0
bin	48	0
bin	49	0
bin	50	0
bin	51	0
bin	52	8
bin	53	1
bin	54	1
bin	55	1
bin	56	1
bin	57	1
bin	58	2
bin	59	0
bin	60	0
bin	61	0
bin	62	0
bin	63	0
bin	64	0
bin	65	0
bin	66	8
bin	67	1
bin	68	1
bin	69	1
bin	70	1
bin	71	1
bin	72	1
bin	73	1
bin	74	1
bin	75	1
bin	76	2
bin	77	0
bin	78	0
bin	79	0
bin	80	0
bin	81	0
bin	82	0
bin	83	0
bin	84	8
bin	85	1
bin	86	1
bin	87	1
bin	88	1
bin	89	2
bin	90	0
bin	91	0
bin	92	0
bin	93	0
bin	94	0
bin	95	0
bin	96	0
bin	97	8
bin	98	1
bin	99	1
bin	100	1
bin	101	1
bin	102	2
bin	103	0
bin	104	0
bin	105	0
bin	106	0
bin	107	0
bin	108	0
bin	109	0
bin	110	8
bin	111	1
bin	112	1
bin	113	1
bin	114	1
bin	115	2
bin	116	0
bin	117	0
bin	118	0
bin	119	0
bin	120	0
bin	121	0
bin	122	0
bin	123	8
bin	124	1
bin	125	1
bin	126	1
bin	127	1
bin	128	1
bin	129	1
bin	130	1
bin	131	2
bin	132	0
bin	133	0
bin	134	0
bin	135	0
bin	136	0
bin	137	0
bin	138	0
bin	139	8
bin	140	1
bin	141	1
bin	142	1
bin	143	1
bin	144	1
bin	145	1
bin	146	236
scalar SimphonyDHTNetwork.members[34] 	#packetsInTheNetwork 	219
statistic SimphonyDHTNetwork.members[34] 	"packets statistics"
field count 231
field mean 110.50216450216
field stddev 63.379181498884
field sum 25526
field sqrsum 3744570
field min 0
field max 218
attr type  int
bin	-INF	0
bin	-48	0
bin	-47	0
bin	-46	0
bin	-45	0
bin	-44	0
bin	-43	0
bin	-42	0
bin	-41	0
bin	-40	0
bin	-39	0
bin	-38	0
bin	-37	0
bin	-36	0
bin	-35	0
bin	-34	0
bin	-33	0
bin	-32	0
bin	-31	0
bin	-30	0
bin	-29	0
bin	-28	0
bin	-27	0
bin	-26	0
bin	-25	0
bin	-24	0
bin	-23	0
bin	-22	0
bin	-21	0
bin	-20	0
bin	-19	0
bin	-18	0
bin	-17	0
bin	-16	0
bin	-15	0
bin	-14	0
bin	-13	0
bin	-12	0
bin	-11	0
bin	-10	0
bin	-9	0
bin	-8	0
bin	-7	0
bin	-6	0
bin	-5	0
bin	-4	0
bin	-3	0
bin	-2	0
bin	-1	0
bin	0	1
bin	1	1
bin	2	1
bin	3	1
bin	4	1
bin	5	1
bin	6	1
bin	7	1
bin	8	1
bin	9	1
bin	10	1
bin	11	1
bin	12	1
bin	13	2
bin	14	0
bin	15	0
bin	16	0
bin	17	0
bin	18	0
bin	19	0
bin	20	0
bin	21	8
bin	22	1
bin	23	1
bin	24	1
bin	25	1
bin	26	1
bin	27	1
bin	28	1
bin	29	1
bin	30	1
bin	31	2
bin	32	0
bin	33	0
bin	34	0
bin	35	0
bin	36	0
bin	37	0
bin	38	0
bin	39	8
bin	40	1
bin	41	1
bin	42	1
bin	43	1
bin	44	2
bin	45	0
bin	46	0
bin	47	0
bin	48	0
bin	49	0
bin	50	0
bin	51	0
bin	52	8
bin	53	1
bin	54	1
bin	55	1
bin	56	1
bin	57	1
bin	58	1
bin	59	1
bin	60	1
bin	61	1
bin	62	1
bin	63	2
bin	64	0
bin	65	0
bin	66	0
bin	67	0
bin	68	0
bin	69	0
bin	70	0
bin	71	8
bin	72	1
bin	73	1
bin	74	1
bin	75	1
bin	76	1
bin	77	1
bin	78	1
bin	79	1
bin	80	1
bin	81	1
bin	82	1
bin	83	1
bin	84	1
bin	85	1
bin	86	1
bin	87	1
bin	88	2
bin	89	0
bin	90	0
bin	91	0
bin	92	0
bin	93	0
bin	94	0
bin	95	0
bin	96	8
bin	97	1
bin	98	1
bin	99	1
bin	100	1
bin	101	2
bin	102	0
bin	103	0
bin	104	0
bin	105	0
bin	106	0
bin	107	0
bin	108	0
bin	109	8
bin	110	1
bin	111	1
bin	112	1
bin	113	1
bin	114	1
bin	115	1
bin	116	1
bin	117	1
bin	118	1
bin	119	1
bin	120	1
bin	121	1
bin	122	1
bin	123	1
bin	124	1
bin	125	1
bin	126	1
bin	127	1
bin	128	1
bin	129	1
bin	130	1
bin	131	1
bin	132	1
bin	133	1
bin	134	1
bin	135	1
bin	136	1
bin	137	1
bin	138	1
bin	139	1
bin	140	1
bin	141	1
bin	142	1
bin	143	1
bin	144	81
scalar SimphonyDHTNetwork.members[35] 	#packetsInTheNetwork 	239
statistic SimphonyDHTNetwork.members[35] 	"packets statistics"
field count 254
field mean 118.79133858268
field stddev 68.86154812418
field sum 30173
field sqrsum 4783995
field min 0
field max 238
attr type  int
bin	-INF	0
bin	-49	0
bin	-48	0
bin	-47	0
bin	-46	0
bin	-45	0
bin	-44	0
bin	-43	0
bin	-42	0
bin	-41	0
bin	-40	0
bin	-39	0
bin	-38	0
bin	-37	0
bin	-36	0
bin	-35	0
bin	-34	0
bin	-33	0
bin	-32	0
bin	-31	0
bin	-30	0
bin	-29	0
bin	-28	0
bin	-27	0
bin	-26	0
bin	-25	0
bin	-24	0
bin	-23	0
bin	-22	0
bin	-21	0
bin	-20	0
bin	-19	0
bin	-18	0
bin	-17	0
bin	-16	0
bin	-15	0
bin	-14	0
bin	-13	0
bin	-12	0
bin	-11	0
bin	-10	0
bin	-9	0
bin	-8	0
bin	-7	0
bin	-6	0
bin	-5	0
bin	-4	0
bin	-3	0
bin	-2	0
bin	-1	0
bin	0	1
bin	1	1
bin	2	1
bin	3	1
bin	4	1
bin	5	1
bin	6	1
bin	7	1
bin	8	1
bin	9	2
bin	10	2
bin	11	1
bin	12	1
bin	13	2
bin	14	0
bin	15	0
bin	16	0
bin	17	0
bin	18	0
bin	19	0
bin	20	0
bin	21	8
bin	22	1
bin	23	1
bin	24	1
bin	25	1
bin	26	1
bin	27	2
bin	28	0
bin	29	0
bin	30	0
bin	31	0
bin	32	0
bin	33	0
bin	34	0
bin	35	8
bin	36	1
bin	37	1
bin	38	1
bin	39	1
bin	40	2
bin	41	0
bin	42	0
bin	43	0
bin	44	0
bin	45	0
bin	46	0
bin	47	0
bin	48	8
bin	49	1
bin	50	1
bin	51	1
bin	52	1
bin	53	1
bin	54	1
bin	55	1
bin	56	1
bin	57	1
bin	58	1
bin	59	1
bin	60	1
bin	61	1
bin	62	1
bin	63	2
bin	64	0
bin	65	0
bin	66	0
bin	67	0
bin	68	0
bin	69	0
bin	70	0
bin	71	8
bin	72	1
bin	73	1
bin	74	1
bin	75	1
bin	76	2
bin	77	0
bin	78	0
bin	79	0
bin	80	0
bin	81	0
bin	82	0
bin	83	0
bin	84	8
bin	85	1
bin	86	1
bin	87	1
bin	88	1
bin	89	2
bin	90	0
bin	91	0
bin	92	0
bin	93	0
bin	94	0
bin	95	0
bin	96	0
bin	97	8
bin	98	1
bin	99	1
bin	100	1
bin	101	1
bin	102	1
bin	103	1
bin	104	1
bin	105	1
bin	106	1
bin	107	1
bin	108	1
bin	109	1
bin	110	1
bin	111	1
bin	112	1
bin	113	1
bin	114	1
bin	115	2
bin	116	0
bin	117	0
bin	118	0
bin	119	0
bin	120	0
bin	121	0
bin	122	0
bin	123	8
bin	124	1
bin	125	1
bin	126	1
bin	127	1
bin	128	2
bin	129	0
bin	130	0
bin	131	0
bin	132	0
bin	133	0
bin	134	0
bin	135	0
bin	136	8
bin	137	1
bin	138	1
bin	139	1
bin	140	1
bin	141	2
bin	142	0
bin	143	0
bin	144	0
bin	145	0
bin	146	101
scalar SimphonyDHTNetwork.members[36] 	#packetsInTheNetwork 	149
statistic SimphonyDHTNetwork.members[36] 	"packets statistics"
field count 156
field mean 73.448717948718
field stddev 43.419973829771
field sum 11458
field sqrsum 1133796
field min 0
field max 148
attr type  int
bin	-INF	0
bin	-47	0
bin	-46	0
bin	-45	0
bin	-44	0
bin	-43	0
bin	-42	0
bin	-41	0
bin	-40	0
bin	-39	0
bin	-38	0
bin	-37	0
bin	-36	0
bin	-35	0
bin	-34	0
bin	-33	0
bin	-32	0
bin	-31	0
bin	-30	0
bin	-29	0
bin	-28	0
bin	-27	0
bin	-26	0
bin	-25	0
bin	-24	0
bin	-23	0
bin	-22	0
bin	-21	0
bin	-20	0
bin	-19	0
bin	-18	0
bin	-17	0
bin	-16	0
bin	-15	0
bin	-14	0
bin	-13	0
bin	-12	0
bin	-11	0
bin	-10	0
bin	-9	0
bin	-8	0
bin	-7	0
bin	-6	0
bin	-5	0
bin	-4	0
bin	-3	0
bin	-2	0
bin	-1	0
bin	0	1
bin	1	1
bin	2	1
bin	3	1
bin	4	2
bin	5	1
bin	6	2
bin	7	2
bin	8	1
bin	9	1
bin	10	1
bin	11	1
bin	12	1
bin	13	1
bin	14	1
bin	15	1
bin	16	1
bin	17	1
bin	18	1
bin	19	1
bin	20	1
bin	21	1
bin	22	1
bin	23	1
bin	24	1
bin	25	1
bin	26	1
bin	27	1
bin	28	1
bin	29	1
bin	30	1
bin	31	1
bin	32	1
bin	33	1
bin	34	1
bin	35	1
bin	36	1
bin	37	1
bin	38	1
bin	39	1
bin	40	1
bin	41	1
bin	42	1
bin	43	1
bin	44	1
bin	45	1
bin	46	1
bin	47	1
bin	48	1
bin	49	1
bin	50	1
bin	51	1
bin	52	1
bin	53	1
bin	54	2
bin	55	0
bin	56	0
bin	57	0
bin	58	0
bin	59	0
bin	60	0
bin	61	0
bin	62	8
bin	63	1
bin	64	1
bin	65	1
bin	66	1
bin	67	1
bin	68	1
bin	69	1
bin	70	2
bin	71	0
bin	72	0
bin	73	0
bin	74	0
bin	75	0
bin	76	0
bin	77	0
bin	78	8
bin	79	1
bin	80	1
bin	81	1
bin	82	1
bin	83	2
bin	84	0
bin	85	0
bin	86	0
bin	87	0
bin	88	0
bin	89	0
bin	90	0
bin	91	8
bin	92	1
bin	93	1
bin	94	1
bin	95	1
bin	96	2
bin	97	0
bin	98	0
bin	99	0
bin	100	0
bin	101	0
bin	102	0
bin	103	0
bin	104	8
bin	105	1
bin	106	1
bin	107	1
bin	108	1
bin	109	1
bin	110	1
bin	111	1
bin	112	1
bin	113	1
bin	114	1
bin	115	1
bin	116	1
bin	117	1
bin	118	1
bin	119	1
bin	120	1
bin	121	1
bin	122	1
bin	123	1
bin	124	1
bin	125	1
bin	126	1
bin	127	1
bin	128	1
bin	129	1
bin	130	1
bin	131	1
bin	132	1
bin	133	1
bin	134	1
bin	135	1
bin	136	1
bin	137	1
bin	138	1
bin	139	1
bin	140	9
scalar SimphonyDHTNetwork.members[37] 	#packetsInTheNetwork 	204
statistic SimphonyDHTNetwork.members[37] 	"packets statistics"
field count 218
field mean 101.66972477064
field stddev 58.604596325911
field sum 22164
field sqrsum 2998694
field min 0
field max 203
attr type  int
bin	-INF	0
bin	-46	0
bin	-45	0
bin	-44	0
bin	-43	0
bin	-42	0
bin	-41	0
bin	-40	0
bin	-39	0
bin	-38	0
bin	-37	0
bin	-36	0
bin	-35	0
bin	-34	0
bin	-33	0
bin	-32	0
bin	-31	0
bin	-30	0
bin	-29	0
bin	-28	0
bin	-27	0
bin	-26	0
bin	-25	0
bin	-24	0
bin	-23	0
bin	-22	0
bin	-21	0
bin	-20	0
bin	-19	0
bin	-18	0
bin	-17	0
bin	-16	0
bin	-15	0
bin	-14	0
bin	-13	0
bin	-12	0
bin	-11	0
bin	-10	0
bin	-9	0
bin	-8	0
bin	-7	0
bin	-6	0
bin	-5	0
bin	-4	0
bin	-3	0
bin	-2	0
bin	-1	0
bin	0	1
bin	1	1
bin	2	0
bin	3	2
bin	4	0
bin	5	0
bin	6	0
bin	7	0
bin	8	0
bin	9	0
bin	10	0
bin	11	8
bin	12	2
bin	13	1
bin	14	1
bin	15	1
bin	16	1
bin	17	1
bin	18	1
bin	19	0
bin	20	2
bin	21	0
bin	22	0
bin	23	0
bin	24	0
bin	25	0
bin	26	0
bin	27	0
bin	28	8
bin	29	1
bin	30	2
bin	31	1
bin	32	2
bin	33	0
bin	34	0
bin	35	0
bin	36	0
bin	37	0
bin	38	0
bin	39	0
bin	40	8
bin	41	1
bin	42	1
bin	43	1
bin	44	1
bin	45	2
bin	46	1
bin	47	1
bin	48	1
bin	49	1
bin	50	1
bin	51	1
bin	52	1
bin	53	1
bin	54	1
bin	55	1
bin	56	1
bin	57	1
bin	58	1
bin	59	1
bin	60	1
bin	61	1
bin	62	2
bin	63	1
bin	64	1
bin	65	1
bin	66	2
bin	67	2
bin	68	1
bin	69	1
bin	70	2
bin	71	0
bin	72	0
bin	73	0
bin	74	0
bin	75	0
bin	76	0
bin	77	0
bin	78	8
bin	79	1
bin	80	1
bin	81	1
bin	82	1
bin	83	1
bin	84	2
bin	85	0
bin	86	0
bin	87	0
bin	88	0
bin	89	0
bin	90	0
bin	91	0
bin	92	8
bin	93	1
bin	94	1
bin	95	1
bin	96	1
bin	97	1
bin	98	2
bin	99	0
bin	100	0
bin	101	0
bin	102	0
bin	103	0
bin	104	0
bin	105	0
bin	106	8
bin	107	1
bin	108	1
bin	109	1
bin	110	1
bin	111	1
bin	112	1
bin	113	2
bin	114	0
bin	115	0
bin	116	0
bin	117	0
bin	118	0
bin	119	0
bin	120	0
bin	121	8
bin	122	1
bin	123	1
bin	124	1
bin	125	1
bin	126	1
bin	127	1
bin	128	1
bin	129	1
bin	130	1
bin	131	1
bin	132	1
bin	133	1
bin	134	1
bin	135	1
bin	136	1
bin	137	1
bin	138	69
scalar SimphonyDHTNetwork.members[38] 	#packetsInTheNetwork 	208
statistic SimphonyDHTNetwork.members[38] 	"packets statistics"
field count 218
field mean 103.98623853211
field stddev 60.060605287036
field sum 22669
field sqrsum 3140043
field min 0
field max 207
attr type  int
bin	-INF	0
bin	-47	0
bin	-46	0
bin	-45	0
bin	-44	0
bin	-43	0
bin	-42	0
bin	-41	0
bin	-40	0
bin	-39	0
bin	-38	0
bin	-37	0
bin	-36	0
bin	-35	0
bin	-34	0
bin	-33	0
bin	-32	0
bin	-31	0
bin	-30	0
bin	-29	0
bin	-28	0
bin	-27	0
bin	-26	0
bin	-25	0
bin	-24	0
bin	-23	0
bin	-22	0
bin	-21	0
bin	-20	0
bin	-19	0
bin	-18	0
bin	-17	0
bin	-16	0
bin	-15	0
bin	-14	0
bin	-13	0
bin	-12	0
bin	-11	0
bin	-10	0
bin	-9	0
bin	-8	0
bin	-7	0
bin	-6	0
bin	-5	0
bin	-4	0
bin	-3	0
bin	-2	0
bin	-1	0
bin	0	1
bin	1	1
bin	2	1
bin	3	1
bin	4	1
bin	5	1
bin	6	1
bin	7	1
bin	8	1
bin	9	1
bin	10	1
bin	11	1
bin	12	1
bin	13	1
bin	14	1
bin	15	1
bin	16	1
bin	17	1
bin	18	1
bin	19	1
bin	20	1
bin	21	1
bin	22	1
bin	23	1
bin	24	1
bin	25	1
bin	26	1
bin	27	1
bin	28	1
bin	29	0
bin	30	2
bin	31	0
bin	32	0
bin	33	0
bin	34	0
bin	35	0
[...]
bin	23	1
bin	24	2
bin	25	0
bin	26	2
bin	27	1
bin	28	1
bin	29	1
bin	30	1
bin	31	1
bin	32	1
bin	33	1
bin	34	1
bin	35	1
bin	36	2
bin	37	1
bin	38	1
bin	39	1
bin	40	2
bin	41	0
bin	42	0
bin	43	3
bin	44	1
bin	45	1
bin	46	1
bin	47	0
bin	48	0
bin	49	0
bin	50	0
bin	51	0
bin	52	0
bin	53	0
bin	54	0
bin	55	0
bin	56	0
bin	57	0
bin	58	0
bin	59	0
bin	60	0
bin	61	0
bin	62	0
bin	63	0
bin	64	0
bin	65	0
bin	66	0
bin	67	0
bin	68	0
bin	69	0
scalar SimphonyDHTNetwork.members[114] 	#packetsInTheNetwork 	456
statistic SimphonyDHTNetwork.members[114] 	"packets statistics"
field count 490
field mean 227.89795918367
field stddev 132.24412650013
field sum 111670
field sqrsum 34001246
field min 0
field max 455
attr type  int
bin	-INF	0
bin	-47	0
bin	-46	0
bin	-45	0
bin	-44	0
bin	-43	0
bin	-42	0
bin	-41	0
bin	-40	0
bin	-39	0
bin	-38	0
bin	-37	0
bin	-36	0
bin	-35	0
bin	-34	0
bin	-33	0
bin	-32	0
bin	-31	0
bin	-30	0
bin	-29	0
bin	-28	0
bin	-27	0
bin	-26	0
bin	-25	0
bin	-24	0
bin	-23	0
bin	-22	0
bin	-21	0
bin	-20	0
bin	-19	0
bin	-18	0
bin	-17	0
bin	-16	0
bin	-15	0
bin	-14	0
bin	-13	0
bin	-12	0
bin	-11	0
bin	-10	0
bin	-9	0
bin	-8	0
bin	-7	0
bin	-6	0
bin	-5	0
bin	-4	0
bin	-3	0
bin	-2	0
bin	-1	0
bin	0	1
bin	1	0
bin	2	0
bin	3	1
bin	4	3
bin	5	0
bin	6	0
bin	7	2
bin	8	0
bin	9	2
bin	10	1
bin	11	1
bin	12	2
bin	13	0
bin	14	2
bin	15	1
bin	16	1
bin	17	2
bin	18	0
bin	19	0
bin	20	3
bin	21	1
bin	22	2
bin	23	1
bin	24	1
bin	25	1
bin	26	1
bin	27	2
bin	28	0
bin	29	0
bin	30	0
bin	31	4
bin	32	1
bin	33	1
bin	34	1
bin	35	1
bin	36	1
bin	37	2
bin	38	0
bin	39	0
bin	40	0
bin	41	4
bin	42	1
bin	43	1
bin	44	1
bin	45	1
bin	46	2
bin	47	0
bin	48	0
bin	49	0
bin	50	4
bin	51	1
bin	52	1
bin	53	1
bin	54	1
bin	55	1
bin	56	1
bin	57	1
bin	58	1
bin	59	1
bin	60	1
bin	61	1
bin	62	2
bin	63	0
bin	64	0
bin	65	0
bin	66	4
bin	67	1
bin	68	1
bin	69	1
bin	70	1
bin	71	1
bin	72	1
bin	73	1
bin	74	1
bin	75	2
bin	76	0
bin	77	0
bin	78	0
bin	79	4
bin	80	1
bin	81	1
bin	82	1
bin	83	1
bin	84	1
bin	85	1
bin	86	1
bin	87	1
bin	88	1
bin	89	2
bin	90	0
bin	91	0
bin	92	0
bin	93	4
bin	94	1
bin	95	1
bin	96	1
bin	97	1
bin	98	2
bin	99	1
bin	100	1
bin	101	1
bin	102	1
bin	103	1
bin	104	1
bin	105	1
bin	106	1
bin	107	2
bin	108	1
bin	109	1
bin	110	2
bin	111	0
bin	112	0
bin	113	0
bin	114	0
bin	115	0
bin	116	6
bin	117	1
bin	118	1
bin	119	1
bin	120	1
bin	121	1
bin	122	1
bin	123	1
bin	124	1
bin	125	1
bin	126	1
bin	127	1
bin	128	1
bin	129	1
bin	130	1
bin	131	1
bin	132	1
bin	133	1
bin	134	1
bin	135	1
bin	136	1
bin	137	1
bin	138	1
bin	139	1
bin	140	339
scalar SimphonyDHTNetwork.members[115] 	#packetsInTheNetwork 	74
statistic SimphonyDHTNetwork.members[115] 	"packets statistics"
field count 81
field mean 37.395061728395
field stddev 20.869642433656
field sum 3029
field sqrsum 148113
field min 0
field max 73
attr type  int
bin	-INF	0
bin	-37	0
bin	-36	0
bin	-35	0
bin	-34	0
bin	-33	0
bin	-32	0
bin	-31	0
bin	-30	0
bin	-29	0
bin	-28	0
bin	-27	0
bin	-26	0
bin	-25	0
bin	-24	0
bin	-23	0
bin	-22	0
bin	-21	0
bin	-20	0
bin	-19	0
bin	-18	0
bin	-17	0
bin	-16	0
bin	-15	0
bin	-14	0
bin	-13	0
bin	-12	0
bin	-11	0
bin	-10	0
bin	-9	0
bin	-8	0
bin	-7	0
bin	-6	0
bin	-5	0
bin	-4	0
bin	-3	0
bin	-2	0
bin	-1	0
bin	0	1
bin	1	0
bin	2	0
bin	3	1
bin	4	3
bin	5	0
bin	6	0
bin	7	1
bin	8	2
bin	9	0
bin	10	1
bin	11	2
bin	12	1
bin	13	2
bin	14	1
bin	15	0
bin	16	2
bin	17	1
bin	18	1
bin	19	1
bin	20	1
bin	21	1
bin	22	2
bin	23	0
bin	24	2
bin	25	1
bin	26	1
bin	27	1
bin	28	1
bin	29	2
bin	30	0
bin	31	0
bin	32	3
bin	33	1
bin	34	2
bin	35	1
bin	36	1
bin	37	2
bin	38	0
bin	39	0
bin	40	3
bin	41	1
bin	42	1
bin	43	1
bin	44	1
bin	45	1
bin	46	2
bin	47	0
bin	48	0
bin	49	3
bin	50	1
bin	51	1
bin	52	1
bin	53	1
bin	54	1
bin	55	1
bin	56	1
bin	57	1
bin	58	2
bin	59	0
bin	60	0
bin	61	3
bin	62	1
bin	63	1
bin	64	1
bin	65	1
bin	66	1
bin	67	1
bin	68	2
bin	69	0
bin	70	0
bin	71	3
bin	72	1
bin	73	1
bin	74	0
bin	75	0
bin	76	0
bin	77	0
bin	78	0
bin	79	0
bin	80	0
bin	81	0
bin	82	0
bin	83	0
bin	84	0
bin	85	0
bin	86	0
bin	87	0
bin	88	0
bin	89	0
bin	90	0
bin	91	0
bin	92	0
bin	93	0
bin	94	0
bin	95	0
bin	96	0
bin	97	0
bin	98	0
bin	99	0
bin	100	0
bin	101	0
bin	102	0
bin	103	0
bin	104	0
bin	105	0
bin	106	0
bin	107	0
bin	108	0
bin	109	0
bin	110	0
scalar SimphonyDHTNetwork.members[116] 	#packetsInTheNetwork 	50
statistic SimphonyDHTNetwork.members[116] 	"packets statistics"
field count 55
field mean 26.036363636364
field stddev 14.329409845907
field sum 1432
field sqrsum 48372
field min 0
field max 50
attr type  int
bin	-INF	0
bin	-25	0
bin	-24	0
bin	-23	0
bin	-22	0
bin	-21	0
bin	-20	0
bin	-19	0
bin	-18	0
bin	-17	0
bin	-16	0
bin	-15	0
bin	-14	0
bin	-13	0
bin	-12	0
bin	-11	0
bin	-10	0
bin	-9	0
bin	-8	0
bin	-7	0
bin	-6	0
bin	-5	0
bin	-4	0
bin	-3	0
bin	-2	0
bin	-1	0
bin	0	1
bin	1	0
bin	2	0
bin	3	1
bin	4	3
bin	5	0
bin	6	0
bin	7	1
bin	8	2
bin	9	0
bin	10	1
bin	11	2
bin	12	1
bin	13	2
bin	14	1
bin	15	0
bin	16	2
bin	17	1
bin	18	1
bin	19	2
bin	20	0
bin	21	0
bin	22	3
bin	23	1
bin	24	1
bin	25	1
bin	26	1
bin	27	1
bin	28	1
bin	29	2
bin	30	0
bin	31	0
bin	32	3
bin	33	1
bin	34	1
bin	35	2
bin	36	0
bin	37	0
bin	38	3
bin	39	1
bin	40	1
bin	41	1
bin	42	1
bin	43	1
bin	44	2
bin	45	0
bin	46	0
bin	47	3
bin	48	1
bin	49	1
bin	50	1
bin	51	0
bin	52	0
bin	53	0
bin	54	0
bin	55	0
bin	56	0
bin	57	0
bin	58	0
bin	59	0
bin	60	0
bin	61	0
bin	62	0
bin	63	0
bin	64	0
bin	65	0
bin	66	0
bin	67	0
bin	68	0
bin	69	0
bin	70	0
bin	71	0
bin	72	0
bin	73	0
bin	74	0
bin	75	0
scalar SimphonyDHTNetwork.members[117] 	#packetsInTheNetwork 	23
statistic SimphonyDHTNetwork.members[117] 	"packets statistics"
field count 25
field mean 12.52
field stddev 6.5835653967537
field sum 313
field sqrsum 4959
field min 0
field max 22
attr type  int
bin	-INF	0
bin	-11	0
bin	-10	0
bin	-9	0
bin	-8	0
bin	-7	0
bin	-6	0
bin	-5	0
bin	-4	0
bin	-3	0
bin	-2	0
bin	-1	0
bin	0	1
bin	1	0
bin	2	0
bin	3	1
bin	4	3
bin	5	0
bin	6	0
bin	7	2
bin	8	0
bin	9	1
bin	10	2
bin	11	1
bin	12	1
bin	13	1
bin	14	2
bin	15	0
bin	16	2
bin	17	1
bin	18	1
bin	19	2
bin	20	0
bin	21	2
bin	22	2
bin	23	0
bin	24	0
bin	25	0
bin	26	0
bin	27	0
bin	28	0
bin	29	0
bin	30	0
bin	31	0
bin	32	0
bin	33	0
scalar SimphonyDHTNetwork.members[118] 	#packetsInTheNetwork 	27
statistic SimphonyDHTNetwork.members[118] 	"packets statistics"
field count 30
field mean 13.966666666667
field stddev 7.4532257924099
field sum 419
field sqrsum 7463
field min 0
field max 26
attr type  int
bin	-INF	0
bin	-13	0
bin	-12	0
bin	-11	0
bin	-10	0
bin	-9	0
bin	-8	0
bin	-7	0
bin	-6	0
bin	-5	0
bin	-4	0
bin	-3	0
bin	-2	0
bin	-1	0
bin	0	1
bin	1	0
bin	2	0
bin	3	1
bin	4	3
bin	5	0
bin	6	0
bin	7	2
bin	8	2
bin	9	0
bin	10	2
bin	11	1
bin	12	1
bin	13	2
bin	14	0
bin	15	0
bin	16	3
bin	17	1
bin	18	2
bin	19	1
bin	20	1
bin	21	2
bin	22	0
bin	23	0
bin	24	3
bin	25	1
bin	26	1
bin	27	0
bin	28	0
bin	29	0
bin	30	0
bin	31	0
bin	32	0
bin	33	0
bin	34	0
bin	35	0
bin	36	0
bin	37	0
bin	38	0
bin	39	0
scalar SimphonyDHTNetwork.members[119] 	#packetsInTheNetwork 	93
statistic SimphonyDHTNetwork.members[119] 	"packets statistics"
field count 100
field mean 46.76
field stddev 26.774448847943
field sum 4676
field sqrsum 289620
field min 0
field max 92
attr type  int
bin	-INF	0
bin	-46	0
bin	-45	0
bin	-44	0
bin	-43	0
bin	-42	0
bin	-41	0
bin	-40	0
bin	-39	0
bin	-38	0
bin	-37	0
bin	-36	0
bin	-35	0
bin	-34	0
bin	-33	0
bin	-32	0
bin	-31	0
bin	-30	0
bin	-29	0
bin	-28	0
bin	-27	0
bin	-26	0
bin	-25	0
bin	-24	0
bin	-23	0
bin	-22	0
bin	-21	0
bin	-20	0
bin	-19	0
bin	-18	0
bin	-17	0
bin	-16	0
bin	-15	0
bin	-14	0
bin	-13	0
bin	-12	0
bin	-11	0
bin	-10	0
bin	-9	0
bin	-8	0
bin	-7	0
bin	-6	0
bin	-5	0
bin	-4	0
bin	-3	0
bin	-2	0
bin	-1	0
bin	0	1
bin	1	0
bin	2	0
bin	3	1
bin	4	3
bin	5	0
bin	6	0
bin	7	2
bin	8	0
bin	9	2
bin	10	1
bin	11	1
bin	12	2
bin	13	0
bin	14	0
bin	15	3
bin	16	1
bin	17	1
bin	18	2
bin	19	0
bin	20	0
bin	21	0
bin	22	4
bin	23	1
bin	24	2
bin	25	1
bin	26	1
bin	27	1
bin	28	1
bin	29	2
bin	30	1
bin	31	1
bin	32	1
bin	33	1
bin	34	1
bin	35	1
bin	36	1
bin	37	1
bin	38	1
bin	39	1
bin	40	1
bin	41	1
bin	42	1
bin	43	1
bin	44	1
bin	45	1
bin	46	1
bin	47	1
bin	48	1
bin	49	2
bin	50	0
bin	51	0
bin	52	0
bin	53	0
bin	54	5
bin	55	1
bin	56	1
bin	57	1
bin	58	1
bin	59	1
bin	60	1
bin	61	1
bin	62	1
bin	63	1
bin	64	1
bin	65	2
bin	66	0
bin	67	0
bin	68	0
bin	69	0
bin	70	5
bin	71	1
bin	72	1
bin	73	1
bin	74	1
bin	75	1
bin	76	2
bin	77	1
bin	78	1
bin	79	2
bin	80	0
bin	81	0
bin	82	0
bin	83	0
bin	84	0
bin	85	6
bin	86	1
bin	87	1
bin	88	1
bin	89	1
bin	90	1
bin	91	1
bin	92	1
bin	93	0
bin	94	0
bin	95	0
bin	96	0
bin	97	0
bin	98	0
bin	99	0
bin	100	0
bin	101	0
bin	102	0
bin	103	0
bin	104	0
bin	105	0
bin	106	0
bin	107	0
bin	108	0
bin	109	0
bin	110	0
bin	111	0
bin	112	0
bin	113	0
bin	114	0
bin	115	0
bin	116	0
bin	117	0
bin	118	0
bin	119	0
bin	120	0
bin	121	0
bin	122	0
bin	123	0
bin	124	0
bin	125	0
bin	126	0
bin	127	0
bin	128	0
bin	129	0
bin	130	0
bin	131	0
bin	132	0
bin	133	0
bin	134	0
bin	135	0
bin	136	0
bin	137	0
bin	138	0
scalar SimphonyDHTNetwork.members[120] 	#packetsInTheNetwork 	31
statistic SimphonyDHTNetwork.members[120] 	"packets statistics"
field count 33
field mean 15.727272727273
field stddev 8.4085994942407
field sum 519
field sqrsum 10425
field min 0
field max 30
attr type  int
bin	-INF	0
bin	-15	0
bin	-14	0
bin	-13	0
bin	-12	0
bin	-11	0
bin	-10	0
bin	-9	0
bin	-8	0
bin	-7	0
bin	-6	0
bin	-5	0
bin	-4	0
bin	-3	0
bin	-2	0
bin	-1	0
bin	0	1
bin	1	0
bin	2	0
bin	3	1
bin	4	3
bin	5	0
bin	6	0
bin	7	2
bin	8	0
bin	9	2
bin	10	1
bin	11	1
bin	12	2
bin	13	0
bin	14	2
bin	15	1
bin	16	1
bin	17	2
bin	18	0
bin	19	2
bin	20	1
bin	21	2
bin	22	1
bin	23	1
bin	24	1
bin	25	1
bin	26	1
bin	27	1
bin	28	1
bin	29	1
bin	30	1
bin	31	0
bin	32	0
bin	33	0
bin	34	0
bin	35	0
bin	36	0
bin	37	0
bin	38	0
bin	39	0
bin	40	0
bin	41	0
bin	42	0
bin	43	0
bin	44	0
bin	45	0
scalar SimphonyDHTNetwork.members[121] 	#packetsInTheNetwork 	47
statistic SimphonyDHTNetwork.members[121] 	"packets statistics"
field count 53
field mean 24.320754716981
field stddev 13.245860870048
field sum 1289
field sqrsum 40473
field min 0
field max 46
attr type  int
bin	-INF	0
bin	-23	0
bin	-22	0
bin	-21	0
bin	-20	0
bin	-19	0
bin	-18	0
bin	-17	0
bin	-16	0
bin	-15	0
bin	-14	0
bin	-13	0
bin	-12	0
bin	-11	0
bin	-10	0
bin	-9	0
bin	-8	0
bin	-7	0
bin	-6	0
bin	-5	0
bin	-4	0
bin	-3	0
bin	-2	0
bin	-1	0
bin	0	1
bin	1	0
bin	2	0
bin	3	1
bin	4	3
bin	5	0
bin	6	0
bin	7	2
bin	8	0
bin	9	2
bin	10	1
bin	11	1
bin	12	2
bin	13	0
bin	14	2
bin	15	1
bin	16	1
bin	17	2
bin	18	0
bin	19	2
bin	20	1
bin	21	2
bin	22	1
bin	23	1
bin	24	1
bin	25	1
bin	26	1
bin	27	1
bin	28	1
bin	29	1
bin	30	1
bin	31	2
bin	32	0
bin	33	2
bin	34	1
bin	35	1
bin	36	1
bin	37	1
bin	38	1
bin	39	2
bin	40	1
bin	41	2
bin	42	2
bin	43	1
bin	44	1
bin	45	1
bin	46	1
bin	47	0
bin	48	0
bin	49	0
bin	50	0
bin	51	0
bin	52	0
bin	53	0
bin	54	0
bin	55	0
bin	56	0
bin	57	0
bin	58	0
bin	59	0
bin	60	0
bin	61	0
bin	62	0
bin	63	0
bin	64	0
bin	65	0
bin	66	0
bin	67	0
bin	68	0
bin	69	0
scalar SimphonyDHTNetwork.members[122] 	#packetsInTheNetwork 	105
statistic SimphonyDHTNetwork.members[122] 	"packets statistics"
field count 112
field mean 52.821428571429
field stddev 30.370449805102
field sum 5916
field sqrsum 414874
field min 0
field max 104
attr type  int
bin	-INF	0
bin	-47	0
bin	-46	0
bin	-45	0
bin	-44	0
bin	-43	0
bin	-42	0
bin	-41	0
bin	-40	0
bin	-39	0
bin	-38	0
bin	-37	0
bin	-36	0
bin	-35	0
bin	-34	0
bin	-33	0
bin	-32	0
bin	-31	0
bin	-30	0
bin	-29	0
bin	-28	0
bin	-27	0
bin	-26	0
bin	-25	0
bin	-24	0
bin	-23	0
bin	-22	0
bin	-21	0
bin	-20	0
bin	-19	0
bin	-18	0
bin	-17	0
bin	-16	0
bin	-15	0
bin	-14	0
bin	-13	0
bin	-12	0
bin	-11	0
bin	-10	0
bin	-9	0
bin	-8	0
bin	-7	0
bin	-6	0
bin	-5	0
bin	-4	0
bin	-3	0
bin	-2	0
bin	-1	0
bin	0	1
bin	1	0
bin	2	0
bin	3	1
bin	4	3
bin	5	0
bin	6	0
bin	7	2
bin	8	0
bin	9	2
bin	10	1
bin	11	1
bin	12	2
bin	13	0
bin	14	0
bin	15	3
bin	16	1
bin	17	1
bin	18	2
bin	19	0
bin	20	0
bin	21	3
bin	22	1
bin	23	2
bin	24	1
bin	25	1
bin	26	1
bin	27	1
bin	28	1
bin	29	1
bin	30	1
bin	31	1
bin	32	1
bin	33	1
bin	34	1
bin	35	1
bin	36	1
bin	37	1
bin	38	1
bin	39	1
bin	40	1
bin	41	2
bin	42	0
bin	43	0
bin	44	3
bin	45	1
bin	46	1
bin	47	1
bin	48	1
bin	49	1
bin	50	1
bin	51	1
bin	52	1
bin	53	1
bin	54	1
bin	55	1
bin	56	1
bin	57	1
bin	58	1
bin	59	1
bin	60	1
bin	61	1
bin	62	1
bin	63	1
bin	64	1
bin	65	1
bin	66	1
bin	67	1
bin	68	1
bin	69	2
bin	70	0
bin	71	0
bin	72	3
bin	73	1
bin	74	1
bin	75	1
bin	76	1
bin	77	1
bin	78	1
bin	79	1
bin	80	1
bin	81	2
bin	82	0
bin	83	0
bin	84	3
bin	85	1
bin	86	1
bin	87	1
bin	88	1
bin	89	1
bin	90	1
bin	91	1
bin	92	2
bin	93	1
bin	94	1
bin	95	1
bin	96	1
bin	97	2
bin	98	0
bin	99	0
bin	100	0
bin	101	4
bin	102	1
bin	103	1
bin	104	1
bin	105	0
bin	106	0
bin	107	0
bin	108	0
bin	109	0
bin	110	0
bin	111	0
bin	112	0
bin	113	0
bin	114	0
bin	115	0
bin	116	0
bin	117	0
bin	118	0
bin	119	0
bin	120	0
bin	121	0
bin	122	0
bin	123	0
bin	124	0
bin	125	0
bin	126	0
bin	127	0
bin	128	0
bin	129	0
bin	130	0
bin	131	0
bin	132	0
bin	133	0
bin	134	0
bin	135	0
bin	136	0
bin	137	0
bin	138	0
bin	139	0
bin	140	0
scalar SimphonyDHTNetwork.members[123] 	#packetsInTheNetwork 	38
statistic SimphonyDHTNetwork.members[123] 	"packets statistics"
field count 40
field mean 19
field stddev 10.409561679484
field sum 760
field sqrsum 18666
field min 0
field max 37
attr type  int
bin	-INF	0
bin	-19	0
bin	-18	0
bin	-17	0
bin	-16	0
bin	-15	0
bin	-14	0
bin	-13	0
bin	-12	0
bin	-11	0
bin	-10	0
bin	-9	0
bin	-8	0
bin	-7	0
bin	-6	0
bin	-5	0
bin	-4	0
bin	-3	0
bin	-2	0
bin	-1	0
bin	0	1
bin	1	0
bin	2	0
bin	3	1
bin	4	3
bin	5	0
bin	6	0
bin	7	2
bin	8	0
bin	9	2
bin	10	1
bin	11	1
bin	12	2
bin	13	0
bin	14	2
bin	15	1
bin	16	1
bin	17	2
bin	18	0
bin	19	0
bin	20	3
bin	21	1
bin	22	2
bin	23	1
bin	24	1
bin	25	1
bin	26	1
bin	27	1
bin	28	1
bin	29	1
bin	30	1
bin	31	1
bin	32	1
bin	33	1
bin	34	1
bin	35	1
bin	36	1
bin	37	1
bin	38	0
bin	39	0
bin	40	0
bin	41	0
bin	42	0
bin	43	0
bin	44	0
bin	45	0
bin	46	0
bin	47	0
bin	48	0
bin	49	0
bin	50	0
bin	51	0
bin	52	0
bin	53	0
bin	54	0
bin	55	0
bin	56	0
scalar SimphonyDHTNetwork.members[124] 	#packetsInTheNetwork 	84
statistic SimphonyDHTNetwork.members[124] 	"packets statistics"
field count 92
field mean 42.04347826087
field stddev 23.917400463086
field sum 3868
field sqrsum 214680
field min 0
field max 83
attr type  int
bin	-INF	0
bin	-42	0
bin	-41	0
bin	-40	0
bin	-39	0
bin	-38	0
bin	-37	0
bin	-36	0
bin	-35	0
bin	-34	0
bin	-33	0
bin	-32	0
bin	-31	0
bin	-30	0
bin	-29	0
bin	-28	0
bin	-27	0
bin	-26	0
bin	-25	0
bin	-24	0
bin	-23	0
bin	-22	0
bin	-21	0
bin	-20	0
bin	-19	0
bin	-18	0
bin	-17	0
bin	-16	0
bin	-15	0
bin	-14	0
bin	-13	0
bin	-12	0
bin	-11	0
bin	-10	0
bin	-9	0
bin	-8	0
bin	-7	0
bin	-6	0
bin	-5	0
bin	-4	0
bin	-3	0
bin	-2	0
bin	-1	0
bin	0	1
bin	1	0
bin	2	0
bin	3	1
bin	4	3
bin	5	0
bin	6	0
bin	7	2
bin	8	0
bin	9	2
bin	10	1
bin	11	1
bin	12	2
bin	13	0
bin	14	2
bin	15	1
bin	16	1
bin	17	2
bin	18	0
bin	19	0
bin	20	3
bin	21	1
bin	22	2
bin	23	1
bin	24	1
bin	25	1
bin	26	2
bin	27	0
bin	28	0
bin	29	3
bin	30	1
bin	31	1
bin	32	1
bin	33	1
bin	34	1
bin	35	2
bin	36	0
bin	37	0
bin	38	3
bin	39	1
bin	40	1
bin	41	1
bin	42	1
bin	43	1
bin	44	1
bin	45	1
bin	46	2
bin	47	0
bin	48	0
bin	49	3
bin	50	1
bin	51	1
bin	52	1
bin	53	1
bin	54	1
bin	55	2
bin	56	0
bin	57	0
bin	58	3
bin	59	1
bin	60	1
bin	61	1
bin	62	1
bin	63	1
bin	64	1
bin	65	1
bin	66	1
bin	67	2
bin	68	0
bin	69	0
bin	70	3
bin	71	1
bin	72	1
bin	73	1
bin	74	1
bin	75	1
bin	76	1
bin	77	1
bin	78	2
bin	79	0
bin	80	0
bin	81	3
bin	82	1
bin	83	1
bin	84	0
bin	85	0
bin	86	0
bin	87	0
bin	88	0
bin	89	0
bin	90	0
bin	91	0
bin	92	0
bin	93	0
bin	94	0
bin	95	0
bin	96	0
bin	97	0
bin	98	0
bin	99	0
bin	100	0
bin	101	0
bin	102	0
bin	103	0
bin	104	0
bin	105	0
bin	106	0
bin	107	0
bin	108	0
bin	109	0
bin	110	0
bin	111	0
bin	112	0
bin	113	0
bin	114	0
bin	115	0
bin	116	0
bin	117	0
bin	118	0
bin	119	0
bin	120	0
bin	121	0
bin	122	0
bin	123	0
bin	124	0
bin	125	0
scalar SimphonyDHTNetwork.members[125] 	#packetsInTheNetwork 	102
statistic SimphonyDHTNetwork.members[125] 	"packets statistics"
field count 110
field mean 50.636363636364
field stddev 28.920875059003
field sum 5570
field sqrsum 373214
field min 0
field max 101
attr type  int
bin	-INF	0
bin	-46	0
bin	-45	0
bin	-44	0
bin	-43	0
bin	-42	0
bin	-41	0
bin	-40	0
bin	-39	0
bin	-38	0
bin	-37	0
bin	-36	0
bin	-35	0
bin	-34	0
bin	-33	0
bin	-32	0
bin	-31	0
bin	-30	0
bin	-29	0
bin	-28	0
bin	-27	0
bin	-26	0
bin	-25	0
bin	-24	0
bin	-23	0
bin	-22	0
bin	-21	0
bin	-20	0
bin	-19	0
bin	-18	0
bin	-17	0
bin	-16	0
bin	-15	0
bin	-14	0
bin	-13	0
bin	-12	0
bin	-11	0
bin	-10	0
bin	-9	0
bin	-8	0
bin	-7	0
bin	-6	0
bin	-5	0
bin	-4	0
bin	-3	0
bin	-2	0
bin	-1	0
bin	0	1
bin	1	0
bin	2	0
bin	3	1
bin	4	3
bin	5	0
bin	6	0
bin	7	2
bin	8	0
bin	9	2
bin	10	1
bin	11	1
bin	12	2
bin	13	0
bin	14	0
bin	15	3
bin	16	1
bin	17	1
bin	18	2
bin	19	0
bin	20	0
bin	21	0
bin	22	4
bin	23	2
bin	24	1
bin	25	1
bin	26	2
bin	27	0
bin	28	0
bin	29	0
bin	30	4
bin	31	1
bin	32	1
bin	33	1
bin	34	1
bin	35	1
bin	36	2
bin	37	0
bin	38	0
bin	39	0
bin	40	4
bin	41	1
bin	42	1
bin	43	1
bin	44	1
bin	45	1
bin	46	2
bin	47	0
bin	48	0
bin	49	0
bin	50	4
bin	51	1
bin	52	1
bin	53	1
bin	54	1
bin	55	1
bin	56	1
bin	57	2
bin	58	0
bin	59	0
bin	60	0
bin	61	4
bin	62	1
bin	63	1
bin	64	1
bin	65	1
bin	66	1
bin	67	1
bin	68	1
bin	69	1
bin	70	1
bin	71	2
bin	72	0
bin	73	0
bin	74	0
bin	75	4
bin	76	1
bin	77	1
bin	78	1
bin	79	1
bin	80	1
bin	81	1
bin	82	1
bin	83	2
bin	84	0
bin	85	0
bin	86	0
bin	87	4
bin	88	1
bin	89	1
bin	90	1
bin	91	1
bin	92	1
bin	93	1
bin	94	1
bin	95	1
bin	96	1
bin	97	1
bin	98	1
bin	99	1
bin	100	1
bin	101	1
bin	102	0
bin	103	0
bin	104	0
bin	105	0
bin	106	0
bin	107	0
bin	108	0
bin	109	0
bin	110	0
bin	111	0
bin	112	0
bin	113	0
bin	114	0
bin	115	0
bin	116	0
bin	117	0
bin	118	0
bin	119	0
bin	120	0
bin	121	0
bin	122	0
bin	123	0
bin	124	0
bin	125	0
bin	126	0
bin	127	0
bin	128	0
bin	129	0
bin	130	0
bin	131	0
bin	132	0
bin	133	0
bin	134	0
bin	135	0
bin	136	0
bin	137	0
scalar SimphonyDHTNetwork.members[126] 	#packetsInTheNetwork 	62
statistic SimphonyDHTNetwork.members[126] 	"packets statistics"
field count 65
field mean 30.523076923077
field stddev 17.441068355597
field sum 1984
field sqrsum 80026
field min 0
field max 61
attr type  int
bin	-INF	0
bin	-31	0
bin	-30	0
bin	-29	0
bin	-28	0
bin	-27	0
bin	-26	0
bin	-25	0
bin	-24	0
bin	-23	0
bin	-22	0
bin	-21	0
bin	-20	0
bin	-19	0
bin	-18	0
bin	-17	0
bin	-16	0
bin	-15	0
bin	-14	0
bin	-13	0
bin	-12	0
bin	-11	0
bin	-10	0
bin	-9	0
bin	-8	0
bin	-7	0
bin	-6	0
bin	-5	0
bin	-4	0
bin	-3	0
bin	-2	0
bin	-1	0
bin	0	1
bin	1	0
bin	2	0
bin	3	1
bin	4	3
bin	5	0
bin	6	0
bin	7	2
bin	8	0
bin	9	2
bin	10	1
bin	11	1
bin	12	2
bin	13	0
bin	14	2
bin	15	1
bin	16	1
bin	17	2
bin	18	0
bin	19	2
bin	20	1
bin	21	2
bin	22	1
bin	23	1
bin	24	1
bin	25	1
bin	26	1
bin	27	1
bin	28	1
bin	29	1
bin	30	1
bin	31	1
bin	32	1
bin	33	1
bin	34	1
bin	35	1
bin	36	2
bin	37	0
bin	38	0
bin	39	3
bin	40	1
bin	41	1
bin	42	1
bin	43	1
bin	44	1
bin	45	1
bin	46	1
bin	47	1
bin	48	1
bin	49	1
bin	50	1
bin	51	1
bin	52	1
bin	53	1
bin	54	1
bin	55	1
bin	56	1
bin	57	1
bin	58	1
bin	59	1
bin	60	1
bin	61	1
bin	62	0
bin	63	0
bin	64	0
bin	65	0
bin	66	0
bin	67	0
bin	68	0
bin	69	0
bin	70	0
bin	71	0
bin	72	0
bin	73	0
bin	74	0
bin	75	0
bin	76	0
bin	77	0
bin	78	0
bin	79	0
bin	80	0
bin	81	0
bin	82	0
bin	83	0
bin	84	0
bin	85	0
bin	86	0
bin	87	0
bin	88	0
bin	89	0
bin	90	0
bin	91	0
bin	92	0
scalar SimphonyDHTNetwork.members[127] 	#packetsInTheNetwork 	40
statistic SimphonyDHTNetwork.members[127] 	"packets statistics"
field count 44
field mean 20.863636363636
field stddev 11.281989988351
field sum 918
field sqrsum 24626
field min 0
field max 39
attr type  int
bin	-INF	0
bin	-20	0
bin	-19	0
bin	-18	0
bin	-17	0
bin	-16	0
bin	-15	0
bin	-14	0
bin	-13	0
bin	-12	0
bin	-11	0
bin	-10	0
bin	-9	0
bin	-8	0
bin	-7	0
bin	-6	0
bin	-5	0
bin	-4	0
bin	-3	0
bin	-2	0
bin	-1	0
bin	0	1
bin	1	0
bin	2	0
bin	3	1
bin	4	3
bin	5	0
bin	6	0
bin	7	2
bin	8	0
bin	9	2
bin	10	1
bin	11	1
bin	12	2
bin	13	0
bin	14	0
bin	15	3
bin	16	1
bin	17	1
bin	18	2
bin	19	0
bin	20	0
bin	21	0
bin	22	4
bin	23	1
bin	24	2
bin	25	1
bin	26	1
bin	27	1
bin	28	2
bin	29	0
bin	30	0
bin	31	0
bin	32	4
bin	33	1
bin	34	1
bin	35	1
bin	36	1
bin	37	1
bin	38	1
bin	39	2
bin	40	0
bin	41	0
bin	42	0
bin	43	0
bin	44	0
bin	45	0
bin	46	0
bin	47	0
bin	48	0
bin	49	0
bin	50	0
bin	51	0
bin	52	0
bin	53	0
bin	54	0
bin	55	0
bin	56	0
bin	57	0
bin	58	0
bin	59	0
