version 2
run n-128-0-20130122-16:30:40-8495
attr configname n-128
attr datetime 20130122-16:30:40
attr experiment n-128
attr inifile omnetpp.ini
attr iterationvars $0=128
attr iterationvars2 "$0=128, $repetition=0"
attr measurement $0=128
attr network SimphonyDHTNetwork
attr processid 8495
attr repetition 0
attr replication #0
attr resultdir results
attr runnumber 0
attr seedset 0

scalar SimphonyDHTNetwork.members[0] 	#packetsInTheNetwork 	335
statistic SimphonyDHTNetwork.members[0] 	"packets statistics"
field count 357
field mean 167.52380952381
field stddev 97.229992708402
field sum 59806
field sqrsum 13384436
field min 0
field max 334
attr type  int
bin	-INF	0
bin	-46	0
bin	-45	0
bin	-44	0
bin	-43	0
bin	-42	0
bin	-41	0
bin	-40	0
bin	-39	0
bin	-38	0
bin	-37	0
bin	-36	0
bin	-35	0
bin	-34	0
bin	-33	0
bin	-32	0
bin	-31	0
bin	-30	0
bin	-29	0
bin	-28	0
bin	-27	0
bin	-26	0
bin	-25	0
bin	-24	0
bin	-23	0
bin	-22	0
bin	-21	0
bin	-20	0
bin	-19	0
bin	-18	0
bin	-17	0
bin	-16	0
bin	-15	0
bin	-14	0
bin	-13	0
bin	-12	0
bin	-11	0
bin	-10	0
bin	-9	0
bin	-8	0
bin	-7	0
bin	-6	0
bin	-5	0
bin	-4	0
bin	-3	0
bin	-2	0
bin	-1	0
bin	0	1
bin	1	1
bin	2	1
bin	3	2
bin	4	1
bin	5	1
bin	6	2
bin	7	0
bin	8	0
bin	9	0
bin	10	0
bin	11	0
bin	12	6
bin	13	1
bin	14	1
bin	15	1
bin	16	1
bin	17	1
bin	18	1
bin	19	1
bin	20	1
bin	21	1
bin	22	1
bin	23	2
bin	24	0
bin	25	0
bin	26	0
bin	27	0
bin	28	0
bin	29	6
bin	30	1
bin	31	1
bin	32	1
bin	33	1
bin	34	1
bin	35	1
bin	36	2
bin	37	0
bin	38	0
bin	39	0
bin	40	0
bin	41	0
bin	42	6
bin	43	1
bin	44	1
bin	45	1
bin	46	1
bin	47	1
bin	48	1
bin	49	1
bin	50	1
bin	51	1
bin	52	1
bin	53	2
bin	54	0
bin	55	0
bin	56	0
bin	57	0
bin	58	0
bin	59	6
bin	60	1
bin	61	1
bin	62	1
bin	63	1
bin	64	2
bin	65	0
bin	66	0
bin	67	0
bin	68	0
bin	69	0
bin	70	6
bin	71	1
bin	72	1
bin	73	1
bin	74	1
bin	75	1
bin	76	1
bin	77	1
bin	78	1
bin	79	1
bin	80	1
bin	81	1
bin	82	1
bin	83	1
bin	84	1
bin	85	2
bin	86	0
bin	87	0
bin	88	0
bin	89	0
bin	90	0
bin	91	6
bin	92	1
bin	93	1
bin	94	1
bin	95	1
bin	96	1
bin	97	1
bin	98	1
bin	99	1
bin	100	1
bin	101	1
bin	102	1
bin	103	1
bin	104	1
bin	105	1
bin	106	1
bin	107	1
bin	108	1
bin	109	1
bin	110	1
bin	111	2
bin	112	0
bin	113	0
bin	114	0
bin	115	0
bin	116	0
bin	117	6
bin	118	1
bin	119	1
bin	120	1
bin	121	1
bin	122	1
bin	123	1
bin	124	1
bin	125	1
bin	126	1
bin	127	1
bin	128	1
bin	129	1
bin	130	1
bin	131	1
bin	132	1
bin	133	1
bin	134	1
bin	135	1
bin	136	1
bin	137	1
bin	138	211
scalar SimphonyDHTNetwork.members[1] 	#packetsInTheNetwork 	437
statistic SimphonyDHTNetwork.members[1] 	"packets statistics"
field count 493
field mean 222.0953346856
field stddev 125.98600160392
field sum 109493
field sqrsum 32127141
field min 0
field max 436
attr type  int
bin	-INF	0
bin	-46	0
bin	-45	0
bin	-44	0
bin	-43	0
bin	-42	0
bin	-41	0
bin	-40	0
bin	-39	0
bin	-38	0
bin	-37	0
bin	-36	0
bin	-35	0
bin	-34	0
bin	-33	0
bin	-32	0
bin	-31	0
bin	-30	0
bin	-29	0
bin	-28	0
bin	-27	0
bin	-26	0
bin	-25	0
bin	-24	0
bin	-23	0
bin	-22	0
bin	-21	0
bin	-20	0
bin	-19	0
bin	-18	0
bin	-17	0
bin	-16	0
bin	-15	0
bin	-14	0
bin	-13	0
bin	-12	0
bin	-11	0
bin	-10	0
bin	-9	0
bin	-8	0
bin	-7	0
bin	-6	0
bin	-5	0
bin	-4	0
bin	-3	0
bin	-2	0
bin	-1	0
bin	0	1
bin	1	1
bin	2	1
bin	3	2
bin	4	0
bin	5	0
bin	6	0
bin	7	0
bin	8	5
bin	9	1
bin	10	1
bin	11	1
bin	12	1
bin	13	1
bin	14	1
bin	15	1
bin	16	1
bin	17	1
bin	18	1
bin	19	2
bin	20	0
bin	21	0
bin	22	0
bin	23	0
bin	24	5
bin	25	1
bin	26	1
bin	27	1
bin	28	1
bin	29	1
bin	30	1
bin	31	2
bin	32	0
bin	33	0
bin	34	0
bin	35	0
bin	36	5
bin	37	1
bin	38	1
bin	39	1
bin	40	1
bin	41	1
bin	42	1
bin	43	2
bin	44	1
bin	45	1
bin	46	1
bin	47	1
bin	48	1
bin	49	2
bin	50	1
bin	51	1
bin	52	1
bin	53	2
bin	54	0
bin	55	0
bin	56	0
bin	57	0
bin	58	0
bin	59	0
bin	60	7
bin	61	1
bin	62	1
bin	63	1
bin	64	1
bin	65	1
bin	66	1
bin	67	1
bin	68	1
bin	69	1
bin	70	1
bin	71	1
bin	72	1
bin	73	1
bin	74	1
bin	75	1
bin	76	2
bin	77	1
bin	78	1
bin	79	1
bin	80	1
bin	81	2
bin	82	0
bin	83	0
bin	84	0
bin	85	0
bin	86	0
bin	87	0
bin	88	0
bin	89	8
bin	90	1
bin	91	1
bin	92	1
bin	93	1
bin	94	1
bin	95	1
bin	96	1
bin	97	1
bin	98	1
bin	99	1
bin	100	2
bin	101	1
bin	102	1
bin	103	1
bin	104	1
bin	105	1
bin	106	1
bin	107	1
bin	108	1
bin	109	1
bin	110	1
bin	111	1
bin	112	1
bin	113	1
bin	114	1
bin	115	1
bin	116	1
bin	117	1
bin	118	1
bin	119	1
bin	120	1
bin	121	1
bin	122	2
bin	123	1
bin	124	1
bin	125	1
bin	126	1
bin	127	1
bin	128	2
bin	129	1
bin	130	2
bin	131	1
bin	132	1
bin	133	1
bin	134	2
bin	135	1
bin	136	1
bin	137	343
scalar SimphonyDHTNetwork.members[2] 	#packetsInTheNetwork 	908
statistic SimphonyDHTNetwork.members[2] 	"packets statistics"
field count 997
field mean 450.75626880642
field stddev 261.76266836875
field sum 449404
field sqrsum 270817286
field min 0
field max 907
attr type  int
bin	-INF	0
bin	-46	0
bin	-45	0
bin	-44	0
bin	-43	0
bin	-42	0
bin	-41	0
bin	-40	0
bin	-39	0
bin	-38	0
bin	-37	0
bin	-36	0
bin	-35	0
bin	-34	0
bin	-33	0
bin	-32	0
bin	-31	0
bin	-30	0
bin	-29	0
bin	-28	0
bin	-27	0
bin	-26	0
bin	-25	0
bin	-24	0
bin	-23	0
bin	-22	0
bin	-21	0
bin	-20	0
bin	-19	0
bin	-18	0
bin	-17	0
bin	-16	0
bin	-15	0
bin	-14	0
bin	-13	0
bin	-12	0
bin	-11	0
bin	-10	0
bin	-9	0
bin	-8	0
bin	-7	0
bin	-6	0
bin	-5	0
bin	-4	0
bin	-3	0
bin	-2	0
bin	-1	0
bin	0	1
bin	1	1
bin	2	1
bin	3	1
bin	4	1
bin	5	2
bin	6	0
bin	7	0
bin	8	0
bin	9	0
bin	10	5
bin	11	1
bin	12	1
bin	13	1
bin	14	1
bin	15	1
bin	16	1
bin	17	1
bin	18	1
bin	19	1
bin	20	1
bin	21	1
bin	22	2
bin	23	0
bin	24	0
bin	25	0
bin	26	0
bin	27	5
bin	28	1
bin	29	1
bin	30	1
bin	31	1
bin	32	1
bin	33	1
bin	34	2
bin	35	1
bin	36	1
bin	37	1
bin	38	2
bin	39	0
bin	40	0
bin	41	0
bin	42	0
bin	43	0
bin	44	6
bin	45	1
bin	46	1
bin	47	1
bin	48	1
bin	49	1
bin	50	2
bin	51	1
bin	52	1
bin	53	1
bin	54	2
bin	55	0
bin	56	0
bin	57	0
bin	58	0
bin	59	0
bin	60	0
bin	61	7
bin	62	1
bin	63	1
bin	64	1
bin	65	1
bin	66	1
bin	67	1
bin	68	1
bin	69	2
bin	70	0
bin	71	0
bin	72	0
bin	73	0
bin	74	0
bin	75	0
bin	76	7
bin	77	1
bin	78	1
bin	79	1
bin	80	1
bin	81	2
bin	82	0
bin	83	0
bin	84	0
bin	85	0
bin	86	0
bin	87	0
bin	88	7
bin	89	1
bin	90	1
bin	91	1
bin	92	1
bin	93	1
bin	94	2
bin	95	1
bin	96	1
bin	97	2
bin	98	1
bin	99	1
bin	100	1
bin	101	1
bin	102	2
bin	103	1
bin	104	1
bin	105	1
bin	106	2
bin	107	0
bin	108	0
bin	109	0
bin	110	0
bin	111	0
bin	112	0
bin	113	0
bin	114	8
bin	115	1
bin	116	1
bin	117	1
bin	118	1
bin	119	1
bin	120	2
bin	121	1
bin	122	1
bin	123	2
bin	124	0
bin	125	0
bin	126	0
bin	127	0
bin	128	0
bin	129	0
bin	130	0
bin	131	8
bin	132	1
bin	133	1
bin	134	1
bin	135	1
bin	136	1
bin	137	846
scalar SimphonyDHTNetwork.members[3] 	#packetsInTheNetwork 	775
statistic SimphonyDHTNetwork.members[3] 	"packets statistics"
field count 836
field mean 386.54186602871
field stddev 224.71715164877
field sum 323149
field sqrsum 167076279
field min 0
field max 774
attr type  int
bin	-INF	0
bin	-46	0
bin	-45	0
bin	-44	0
bin	-43	0
bin	-42	0
bin	-41	0
bin	-40	0
bin	-39	0
bin	-38	0
bin	-37	0
bin	-36	0
bin	-35	0
bin	-34	0
bin	-33	0
bin	-32	0
bin	-31	0
bin	-30	0
bin	-29	0
bin	-28	0
bin	-27	0
bin	-26	0
bin	-25	0
bin	-24	0
bin	-23	0
bin	-22	0
bin	-21	0
bin	-20	0
bin	-19	0
bin	-18	0
bin	-17	0
bin	-16	0
bin	-15	0
bin	-14	0
bin	-13	0
bin	-12	0
bin	-11	0
bin	-10	0
bin	-9	0
bin	-8	0
bin	-7	0
bin	-6	0
bin	-5	0
bin	-4	0
bin	-3	0
bin	-2	0
bin	-1	0
bin	0	1
bin	1	1
bin	2	1
bin	3	1
bin	4	1
bin	5	1
bin	6	2
bin	7	0
bin	8	0
bin	9	0
bin	10	0
bin	11	5
bin	12	1
bin	13	1
bin	14	1
bin	15	1
bin	16	2
bin	17	1
bin	18	1
bin	19	2
bin	20	1
bin	21	1
bin	22	1
bin	23	1
bin	24	1
bin	25	2
bin	26	0
bin	27	0
bin	28	0
bin	29	0
bin	30	0
bin	31	6
bin	32	1
bin	33	1
bin	34	1
bin	35	1
bin	36	1
bin	37	1
bin	38	1
bin	39	2
bin	40	0
bin	41	0
bin	42	0
bin	43	0
bin	44	0
bin	45	6
bin	46	1
bin	47	1
bin	48	1
bin	49	1
bin	50	2
bin	51	0
bin	52	0
bin	53	0
bin	54	0
bin	55	0
bin	56	6
bin	57	1
bin	58	1
bin	59	1
bin	60	1
bin	61	2
bin	62	0
bin	63	0
bin	64	0
bin	65	0
bin	66	0
bin	67	6
bin	68	1
bin	69	1
bin	70	1
bin	71	1
bin	72	1
bin	73	1
bin	74	1
bin	75	1
bin	76	2
bin	77	0
bin	78	0
bin	79	0
bin	80	0
bin	81	0
bin	82	6
bin	83	1
bin	84	1
bin	85	0
bin	86	2
bin	87	0
bin	88	0
bin	89	0
bin	90	0
bin	91	0
bin	92	6
bin	93	1
bin	94	2
bin	95	1
bin	96	1
bin	97	1
bin	98	1
bin	99	2
bin	100	1
bin	101	1
bin	102	2
bin	103	0
bin	104	0
bin	105	0
bin	106	0
bin	107	0
bin	108	0
bin	109	7
bin	110	1
bin	111	1
bin	112	1
bin	113	2
bin	114	0
bin	115	0
bin	116	0
bin	117	0
bin	118	0
bin	119	0
bin	120	7
bin	121	1
bin	122	1
bin	123	1
bin	124	1
bin	125	1
bin	126	2
bin	127	0
bin	128	0
bin	129	0
bin	130	0
bin	131	0
bin	132	0
bin	133	7
bin	134	1
bin	135	1
bin	136	1
bin	137	1
bin	138	685
scalar SimphonyDHTNetwork.members[4] 	#packetsInTheNetwork 	572
statistic SimphonyDHTNetwork.members[4] 	"packets statistics"
field count 620
field mean 286.24838709677
field stddev 165.22188414072
field sum 177474
field sqrsum 67699276
field min 0
field max 571
attr type  int
bin	-INF	0
bin	-46	0
bin	-45	0
bin	-44	0
bin	-43	0
bin	-42	0
bin	-41	0
bin	-40	0
bin	-39	0
bin	-38	0
bin	-37	0
bin	-36	0
bin	-35	0
bin	-34	0
bin	-33	0
bin	-32	0
bin	-31	0
bin	-30	0
bin	-29	0
bin	-28	0
bin	-27	0
bin	-26	0
bin	-25	0
bin	-24	0
bin	-23	0
bin	-22	0
bin	-21	0
bin	-20	0
bin	-19	0
bin	-18	0
bin	-17	0
bin	-16	0
bin	-15	0
bin	-14	0
bin	-13	0
bin	-12	0
bin	-11	0
bin	-10	0
bin	-9	0
bin	-8	0
bin	-7	0
bin	-6	0
bin	-5	0
bin	-4	0
bin	-3	0
bin	-2	0
bin	-1	0
bin	0	1
bin	1	1
bin	2	1
bin	3	2
bin	4	1
bin	5	1
bin	6	1
bin	7	1
bin	8	2
bin	9	0
bin	10	0
bin	11	0
bin	12	0
bin	13	0
bin	14	6
bin	15	1
bin	16	1
bin	17	1
bin	18	1
bin	19	1
bin	20	1
bin	21	1
bin	22	2
bin	23	0
bin	24	0
bin	25	0
bin	26	0
bin	27	0
bin	28	6
bin	29	1
bin	30	1
bin	31	1
bin	32	1
bin	33	1
bin	34	1
bin	35	1
bin	36	1
bin	37	1
bin	38	2
bin	39	0
bin	40	0
bin	41	0
bin	42	0
bin	43	0
bin	44	6
bin	45	1
bin	46	1
bin	47	1
bin	48	1
bin	49	1
bin	50	2
bin	51	0
bin	52	0
bin	53	0
bin	54	0
bin	55	0
bin	56	6
bin	57	1
bin	58	1
bin	59	1
bin	60	1
bin	61	1
bin	62	1
bin	63	1
bin	64	1
bin	65	1
bin	66	1
bin	67	1
bin	68	2
bin	69	0
bin	70	0
bin	71	0
bin	72	0
bin	73	0
bin	74	6
bin	75	1
bin	76	1
bin	77	1
bin	78	1
bin	79	1
bin	80	1
bin	81	1
bin	82	1
bin	83	2
bin	84	0
bin	85	0
bin	86	0
bin	87	0
bin	88	0
bin	89	6
bin	90	1
bin	91	1
bin	92	1
bin	93	1
bin	94	1
bin	95	1
bin	96	1
bin	97	2
bin	98	1
bin	99	1
bin	100	2
bin	101	0
bin	102	0
bin	103	0
bin	104	0
bin	105	0
bin	106	0
bin	107	7
bin	108	1
bin	109	1
bin	110	1
bin	111	1
bin	112	2
bin	113	0
bin	114	0
bin	115	0
bin	116	0
bin	117	0
bin	118	0
bin	119	7
bin	120	1
bin	121	1
bin	122	1
bin	123	1
bin	124	1
bin	125	2
bin	126	0
bin	127	0
bin	128	0
bin	129	0
bin	130	0
bin	131	0
bin	132	7
bin	133	1
bin	134	1
bin	135	1
bin	136	1
bin	137	1
bin	138	471
scalar SimphonyDHTNetwork.members[5] 	#packetsInTheNetwork 	616
statistic SimphonyDHTNetwork.members[5] 	"packets statistics"
field count 664
field mean 307.21987951807
field stddev 177.92417885211
field sum 203994
field sqrsum 83659612
field min 0
field max 615
attr type  int
bin	-INF	0
bin	-46	0
bin	-45	0
bin	-44	0
bin	-43	0
bin	-42	0
bin	-41	0
bin	-40	0
bin	-39	0
bin	-38	0
bin	-37	0
bin	-36	0
bin	-35	0
bin	-34	0
bin	-33	0
bin	-32	0
bin	-31	0
bin	-30	0
bin	-29	0
bin	-28	0
bin	-27	0
bin	-26	0
bin	-25	0
bin	-24	0
bin	-23	0
bin	-22	0
bin	-21	0
bin	-20	0
bin	-19	0
bin	-18	0
bin	-17	0
bin	-16	0
bin	-15	0
bin	-14	0
bin	-13	0
bin	-12	0
bin	-11	0
bin	-10	0
bin	-9	0
bin	-8	0
bin	-7	0
bin	-6	0
bin	-5	0
bin	-4	0
bin	-3	0
bin	-2	0
bin	-1	0
bin	0	1
bin	1	1
bin	2	1
bin	3	1
bin	4	1
bin	5	1
bin	6	1
bin	7	1
bin	8	1
bin	9	2
bin	10	0
bin	11	0
bin	12	0
bin	13	0
bin	14	5
bin	15	1
bin	16	1
bin	17	1
bin	18	1
bin	19	1
bin	20	1
bin	21	1
bin	22	1
bin	23	2
bin	24	0
bin	25	0
bin	26	0
bin	27	0
bin	28	5
bin	29	1
bin	30	1
bin	31	1
bin	32	1
bin	33	1
bin	34	2
bin	35	0
bin	36	0
bin	37	0
bin	38	0
bin	39	5
bin	40	1
bin	41	1
bin	42	1
bin	43	1
bin	44	1
bin	45	1
bin	46	1
bin	47	1
bin	48	1
bin	49	1
bin	50	1
bin	51	1
bin	52	1
bin	53	2
bin	54	0
bin	55	0
bin	56	0
bin	57	0
bin	58	5
bin	59	1
bin	60	1
bin	61	1
bin	62	1
bin	63	1
bin	64	2
bin	65	0
bin	66	0
bin	67	0
bin	68	0
bin	69	5
bin	70	1
bin	71	1
bin	72	1
bin	73	1
bin	74	1
bin	75	2
bin	76	0
bin	77	0
bin	78	0
bin	79	0
bin	80	5
bin	81	1
bin	82	1
bin	83	1
bin	84	1
bin	85	1
bin	86	1
bin	87	2
bin	88	0
bin	89	0
bin	90	0
bin	91	0
bin	92	5
bin	93	1
bin	94	1
bin	95	1
bin	96	1
bin	97	1
bin	98	1
bin	99	2
bin	100	1
bin	101	1
bin	102	2
bin	103	0
bin	104	0
bin	105	0
bin	106	0
bin	107	0
bin	108	6
bin	109	1
bin	110	1
bin	111	2
bin	112	0
bin	113	0
bin	114	0
bin	115	0
bin	116	0
bin	117	2
bin	118	5
bin	119	1
bin	120	1
bin	121	1
bin	122	1
bin	123	1
bin	124	2
bin	125	0
bin	126	0
bin	127	0
bin	128	0
bin	129	0
bin	130	1
bin	131	2
bin	132	5
bin	133	2
bin	134	0
bin	135	0
bin	136	0
bin	137	0
bin	138	518
scalar SimphonyDHTNetwork.members[6] 	#packetsInTheNetwork 	846
statistic SimphonyDHTNetwork.members[6] 	"packets statistics"
field count 913
field mean 420.79518072289
field stddev 245.56404973165
field sum 384186
field sqrsum 216658770
field min 0
field max 845
attr type  int
bin	-INF	0
bin	-44	0
bin	-43	0
bin	-42	0
bin	-41	0
bin	-40	0
bin	-39	0
bin	-38	0
bin	-37	0
bin	-36	0
bin	-35	0
bin	-34	0
bin	-33	0
bin	-32	0
bin	-31	0
bin	-30	0
bin	-29	0
bin	-28	0
bin	-27	0
bin	-26	0
bin	-25	0
bin	-24	0
bin	-23	0
bin	-22	0
bin	-21	0
bin	-20	0
bin	-19	0
bin	-18	0
bin	-17	0
bin	-16	0
bin	-15	0
bin	-14	0
bin	-13	0
bin	-12	0
bin	-11	0
bin	-10	0
bin	-9	0
bin	-8	0
bin	-7	0
bin	-6	0
bin	-5	0
bin	-4	0
bin	-3	0
bin	-2	0
bin	-1	0
bin	0	1
bin	1	1
bin	2	1
bin	3	1
bin	4	1
bin	5	1
bin	6	2
bin	7	1
bin	8	1
bin	9	1
bin	10	2
bin	11	2
bin	12	1
bin	13	1
bin	14	2
bin	15	0
bin	16	0
bin	17	0
bin	18	0
bin	19	0
bin	20	6
bin	21	1
bin	22	1
bin	23	1
bin	24	1
bin	25	1
bin	26	1
bin	27	1
bin	28	1
bin	29	1
bin	30	1
bin	31	2
bin	32	0
bin	33	0
bin	34	0
bin	35	0
bin	36	0
bin	37	6
bin	38	1
bin	39	1
bin	40	1
bin	41	1
bin	42	2
bin	43	0
bin	44	0
bin	45	0
bin	46	0
bin	47	0
bin	48	6
bin	49	1
bin	50	1
bin	51	1
bin	52	1
bin	53	1
bin	54	2
bin	55	2
bin	56	1
bin	57	1
bin	58	2
bin	59	0
bin	60	0
bin	61	0
bin	62	0
bin	63	0
bin	64	6
bin	65	1
bin	66	1
bin	67	1
bin	68	1
bin	69	1
bin	70	2
bin	71	0
bin	72	0
bin	73	0
bin	74	0
bin	75	0
bin	76	6
bin	77	1
bin	78	1
bin	79	1
bin	80	1
bin	81	1
bin	82	2
bin	83	0
bin	84	0
bin	85	0
bin	86	0
bin	87	0
bin	88	6
bin	89	1
bin	90	1
bin	91	1
bin	92	1
bin	93	1
bin	94	2
bin	95	0
bin	96	0
bin	97	0
bin	98	0
bin	99	0
bin	100	6
bin	101	1
bin	102	1
bin	103	1
bin	104	1
bin	105	1
bin	106	2
bin	107	0
bin	108	0
bin	109	0
bin	110	0
bin	111	0
bin	112	6
bin	113	1
bin	114	1
bin	115	1
bin	116	1
bin	117	1
bin	118	2
bin	119	0
bin	120	0
bin	121	0
bin	122	0
bin	123	0
bin	124	6
bin	125	1
bin	126	1
bin	127	1
bin	128	1
bin	129	1
bin	130	1
bin	131	2
bin	132	766
scalar SimphonyDHTNetwork.members[7] 	#packetsInTheNetwork 	571
statistic SimphonyDHTNetwork.members[7] 	"packets statistics"
field count 622
field mean 283.90836012862
field stddev 165.90079965003
field sum 176591
field sqrsum 67227491
field min 0
field max 570
attr type  int
bin	-INF	0
bin	-46	0
bin	-45	0
bin	-44	0
bin	-43	0
bin	-42	0
bin	-41	0
bin	-40	0
bin	-39	0
bin	-38	0
bin	-37	0
bin	-36	0
bin	-35	0
bin	-34	0
bin	-33	0
bin	-32	0
bin	-31	0
bin	-30	0
bin	-29	0
bin	-28	0
bin	-27	0
bin	-26	0
bin	-25	0
bin	-24	0
bin	-23	0
bin	-22	0
bin	-21	0
bin	-20	0
bin	-19	0
bin	-18	0
bin	-17	0
bin	-16	0
bin	-15	0
bin	-14	0
bin	-13	0
bin	-12	0
bin	-11	0
bin	-10	0
bin	-9	0
bin	-8	0
bin	-7	0
bin	-6	0
bin	-5	0
bin	-4	0
bin	-3	0
bin	-2	0
bin	-1	0
bin	0	1
bin	1	1
bin	2	1
bin	3	1
bin	4	1
bin	5	1
bin	6	2
bin	7	0
bin	8	0
bin	9	0
bin	10	0
bin	11	5
bin	12	1
bin	13	1
bin	14	1
bin	15	1
bin	16	2
bin	17	1
bin	18	2
bin	19	2
bin	20	1
bin	21	1
bin	22	1
bin	23	1
bin	24	1
bin	25	1
bin	26	1
bin	27	1
bin	28	1
bin	29	2
bin	30	0
bin	31	0
bin	32	0
bin	33	0
bin	34	5
bin	35	1
bin	36	1
bin	37	1
bin	38	1
bin	39	1
bin	40	1
bin	41	2
bin	42	0
bin	43	0
bin	44	0
bin	45	0
bin	46	5
bin	47	1
bin	48	1
bin	49	1
bin	50	1
bin	51	2
bin	52	0
bin	53	0
bin	54	0
bin	55	0
bin	56	5
bin	57	1
bin	58	1
bin	59	1
bin	60	1
bin	61	2
bin	62	0
bin	63	0
bin	64	0
bin	65	0
bin	66	5
bin	67	1
bin	68	1
bin	69	1
bin	70	1
bin	71	1
bin	72	1
bin	73	1
bin	74	1
bin	75	2
bin	76	0
bin	77	0
bin	78	0
bin	79	0
bin	80	5
bin	81	1
bin	82	1
bin	83	1
bin	84	1
bin	85	1
bin	86	2
bin	87	0
bin	88	0
bin	89	0
bin	90	0
bin	91	5
bin	92	1
bin	93	1
bin	94	1
bin	95	1
bin	96	1
bin	97	2
bin	98	2
bin	99	1
bin	100	1
bin	101	2
bin	102	0
bin	103	0
bin	104	0
bin	105	0
bin	106	5
bin	107	1
bin	108	1
bin	109	1
bin	110	1
bin	111	1
bin	112	2
bin	113	0
bin	114	0
bin	115	0
bin	116	0
bin	117	5
bin	118	1
bin	119	1
bin	120	1
bin	121	1
bin	122	1
bin	123	2
bin	124	0
bin	125	0
bin	126	0
bin	127	0
bin	128	5
bin	129	1
bin	130	1
bin	131	1
bin	132	1
bin	133	1
bin	134	1
bin	135	2
bin	136	2
bin	137	468
scalar SimphonyDHTNetwork.members[8] 	#packetsInTheNetwork 	601
statistic SimphonyDHTNetwork.members[8] 	"packets statistics"
field count 647
field mean 299.66460587326
field stddev 173.62429733356
field sum 193883
field sqrsum 77573799
field min 0
field max 600
attr type  int
bin	-INF	0
bin	-48	0
bin	-47	0
bin	-46	0
bin	-45	0
bin	-44	0
bin	-43	0
bin	-42	0
bin	-41	0
bin	-40	0
bin	-39	0
bin	-38	0
bin	-37	0
bin	-36	0
bin	-35	0
bin	-34	0
bin	-33	0
bin	-32	0
bin	-31	0
bin	-30	0
bin	-29	0
bin	-28	0
bin	-27	0
bin	-26	0
bin	-25	0
bin	-24	0
bin	-23	0
bin	-22	0
bin	-21	0
bin	-20	0
bin	-19	0
bin	-18	0
bin	-17	0
bin	-16	0
bin	-15	0
bin	-14	0
bin	-13	0
bin	-12	0
bin	-11	0
bin	-10	0
bin	-9	0
bin	-8	0
bin	-7	0
bin	-6	0
bin	-5	0
bin	-4	0
bin	-3	0
bin	-2	0
bin	-1	0
bin	0	1
bin	1	1
bin	2	1
bin	3	1
bin	4	1
bin	5	1
bin	6	1
bin	7	2
bin	8	0
bin	9	0
bin	10	0
bin	11	0
bin	12	0
bin	13	6
bin	14	1
bin	15	1
bin	16	1
bin	17	1
bin	18	1
bin	19	2
bin	20	0
bin	21	0
bin	22	0
bin	23	0
bin	24	0
bin	25	6
bin	26	1
bin	27	1
bin	28	1
bin	29	1
bin	30	1
bin	31	1
bin	32	1
bin	33	1
bin	34	1
bin	35	2
bin	36	0
bin	37	0
bin	38	0
bin	39	0
bin	40	0
bin	41	6
bin	42	1
bin	43	1
bin	44	1
bin	45	1
bin	46	1
bin	47	1
bin	48	1
bin	49	1
bin	50	2
bin	51	0
bin	52	0
bin	53	0
bin	54	0
bin	55	0
bin	56	6
bin	57	1
bin	58	1
bin	59	1
bin	60	1
bin	61	2
bin	62	0
bin	63	0
bin	64	0
bin	65	0
bin	66	0
bin	67	6
bin	68	1
bin	69	1
bin	70	1
bin	71	1
bin	72	1
bin	73	1
bin	74	1
bin	75	1
bin	76	1
bin	77	1
bin	78	2
bin	79	0
bin	80	0
bin	81	0
bin	82	0
bin	83	0
bin	84	6
bin	85	1
bin	86	1
bin	87	1
bin	88	1
bin	89	2
bin	90	0
bin	91	0
bin	92	0
bin	93	0
bin	94	0
bin	95	6
bin	96	1
bin	97	1
bin	98	1
bin	99	1
bin	100	2
bin	101	0
bin	102	0
bin	103	0
bin	104	0
bin	105	0
bin	106	6
bin	107	1
bin	108	1
bin	109	1
bin	110	1
bin	111	1
bin	112	2
bin	113	1
bin	114	2
bin	115	2
bin	116	1
bin	117	1
bin	118	1
bin	119	1
bin	120	1
bin	121	2
bin	122	0
bin	123	0
bin	124	0
bin	125	0
bin	126	0
bin	127	6
bin	128	1
bin	129	1
bin	130	1
bin	131	1
bin	132	2
bin	133	0
bin	134	0
bin	135	0
bin	136	0
bin	137	0
bin	138	6
bin	139	1
bin	140	1
bin	141	1
bin	142	1
bin	143	491
scalar SimphonyDHTNetwork.members[9] 	#packetsInTheNetwork 	313
statistic SimphonyDHTNetwork.members[9] 	"packets statistics"
field count 334
field mean 157.07185628743
field stddev 90.05444258323
field sum 52462
field sqrsum 10940868
field min 0
field max 312
attr type  int
bin	-INF	0
bin	-47	0
bin	-46	0
bin	-45	0
bin	-44	0
bin	-43	0
bin	-42	0
bin	-41	0
bin	-40	0
bin	-39	0
bin	-38	0
bin	-37	0
bin	-36	0
bin	-35	0
bin	-34	0
bin	-33	0
bin	-32	0
bin	-31	0
bin	-30	0
bin	-29	0
bin	-28	0
bin	-27	0
bin	-26	0
bin	-25	0
bin	-24	0
bin	-23	0
bin	-22	0
bin	-21	0
bin	-20	0
bin	-19	0
bin	-18	0
bin	-17	0
bin	-16	0
bin	-15	0
bin	-14	0
bin	-13	0
bin	-12	0
bin	-11	0
bin	-10	0
bin	-9	0
bin	-8	0
bin	-7	0
bin	-6	0
bin	-5	0
bin	-4	0
bin	-3	0
bin	-2	0
bin	-1	0
bin	0	1
bin	1	1
bin	2	1
bin	3	1
bin	4	1
bin	5	1
bin	6	1
bin	7	1
bin	8	1
bin	9	1
bin	10	2
bin	11	0
bin	12	0
bin	13	0
bin	14	0
bin	15	0
bin	16	0
bin	17	7
bin	18	1
bin	19	1
bin	20	1
bin	21	1
bin	22	2
bin	23	0
bin	24	0
bin	25	0
bin	26	0
bin	27	0
bin	28	0
bin	29	7
bin	30	1
bin	31	1
bin	32	1
bin	33	1
bin	34	1
bin	35	1
bin	36	1
bin	37	1
bin	38	1
bin	39	1
bin	40	1
bin	41	1
bin	42	1
bin	43	2
bin	44	1
bin	45	1
bin	46	1
bin	47	1
bin	48	1
bin	49	1
bin	50	2
bin	51	0
bin	52	0
bin	53	0
bin	54	0
bin	55	0
bin	56	0
bin	57	0
bin	58	8
bin	59	1
bin	60	1
bin	61	1
bin	62	1
bin	63	1
bin	64	1
bin	65	1
bin	66	1
bin	67	1
bin	68	1
bin	69	1
bin	70	1
bin	71	1
bin	72	1
bin	73	2
bin	74	0
bin	75	0
bin	76	0
bin	77	0
bin	78	0
bin	79	0
bin	80	0
bin	81	8
bin	82	1
bin	83	1
bin	84	1
bin	85	1
bin	86	1
bin	87	1
bin	88	1
bin	89	1
bin	90	1
bin	91	1
bin	92	1
bin	93	1
bin	94	1
bin	95	2
bin	96	0
bin	97	0
bin	98	0
bin	99	0
bin	100	0
bin	101	0
bin	102	0
bin	103	8
bin	104	1
bin	105	1
bin	106	1
bin	107	1
bin	108	1
bin	109	1
bin	110	1
bin	111	1
bin	112	2
bin	113	0
bin	114	0
bin	115	0
bin	116	0
bin	117	0
bin	118	0
bin	119	7
bin	120	1
bin	121	1
bin	122	1
bin	123	1
bin	124	1
bin	125	2
bin	126	0
bin	127	0
bin	128	0
bin	129	0
bin	130	0
bin	131	0
bin	132	7
bin	133	1
bin	134	1
bin	135	1
bin	136	1
bin	137	1
bin	138	1
bin	139	1
bin	140	1
bin	141	185
scalar SimphonyDHTNetwork.members[10] 	#packetsInTheNetwork 	387
statistic SimphonyDHTNetwork.members[10] 	"packets statistics"
field count 406
field mean 193.46798029557
field stddev 111.3775370635
field sum 78548
field sqrsum 20220530
field min 0
field max 386
attr type  int
bin	-INF	0
bin	-48	0
bin	-47	0
bin	-46	0
bin	-45	0
bin	-44	0
bin	-43	0
bin	-42	0
bin	-41	0
bin	-40	0
bin	-39	0
bin	-38	0
bin	-37	0
bin	-36	0
bin	-35	0
bin	-34	0
bin	-33	0
bin	-32	0
bin	-31	0
bin	-30	0
bin	-29	0
bin	-28	0
bin	-27	0
bin	-26	0
bin	-25	0
bin	-24	0
bin	-23	0
bin	-22	0
bin	-21	0
bin	-20	0
bin	-19	0
bin	-18	0
bin	-17	0
bin	-16	0
bin	-15	0
bin	-14	0
bin	-13	0
bin	-12	0
bin	-11	0
bin	-10	0
bin	-9	0
bin	-8	0
bin	-7	0
bin	-6	0
bin	-5	0
bin	-4	0
bin	-3	0
bin	-2	0
bin	-1	0
bin	0	1
bin	1	1
bin	2	1
bin	3	1
bin	4	1
bin	5	2
bin	6	0
bin	7	0
bin	8	0
bin	9	0
bin	10	0
bin	11	0
bin	12	0
bin	13	8
bin	14	1
bin	15	1
bin	16	1
bin	17	1
bin	18	1
bin	19	1
bin	20	1
bin	21	1
bin	22	2
bin	23	0
bin	24	0
bin	25	0
bin	26	0
bin	27	0
bin	28	0
bin	29	0
bin	30	8
bin	31	1
bin	32	1
bin	33	1
bin	34	1
bin	35	1
bin	36	1
bin	37	1
bin	38	1
bin	39	1
bin	40	1
bin	41	1
bin	42	1
bin	43	1
bin	44	1
bin	45	1
bin	46	1
bin	47	1
bin	48	2
bin	49	0
bin	50	0
bin	51	0
bin	52	0
bin	53	0
bin	54	0
bin	55	0
bin	56	8
bin	57	1
bin	58	1
bin	59	1
bin	60	1
bin	61	1
bin	62	1
bin	63	1
bin	64	1
bin	65	1
bin	66	1
bin	67	1
bin	68	1
bin	69	1
bin	70	1
bin	71	1
bin	72	1
bin	73	1
bin	74	1
bin	75	0
bin	76	2
bin	77	0
bin	78	0
bin	79	0
bin	80	0
bin	81	0
bin	82	0
bin	83	0
bin	84	8
bin	85	1
bin	86	2
bin	87	1
bin	88	1
bin	89	1
bin	90	1
bin	91	1
bin	92	1
bin	93	1
bin	94	1
bin	95	1
bin	96	1
bin	97	1
bin	98	1
bin	99	2
bin	100	1
bin	101	1
bin	102	1
bin	103	1
bin	104	1
bin	105	1
bin	106	2
bin	107	0
bin	108	0
bin	109	0
bin	110	0
bin	111	0
bin	112	0
bin	113	0
bin	114	8
bin	115	1
bin	116	1
bin	117	1
bin	118	1
bin	119	1
bin	120	1
bin	121	2
bin	122	0
bin	123	0
bin	124	0
bin	125	0
bin	126	0
bin	127	0
bin	128	0
bin	129	8
bin	130	1
bin	131	1
bin	132	1
bin	133	1
bin	134	1
bin	135	2
bin	136	0
bin	137	0
bin	138	0
bin	139	0
bin	140	0
bin	141	0
bin	142	0
bin	143	262
scalar SimphonyDHTNetwork.members[11] 	#packetsInTheNetwork 	446
statistic SimphonyDHTNetwork.members[11] 	"packets statistics"
field count 474
field mean 222.62658227848
field stddev 128.78192479719
field sum 105525
field sqrsum 31337273
field min 0
field max 445
attr type  int
bin	-INF	0
bin	-47	0
bin	-46	0
bin	-45	0
bin	-44	0
bin	-43	0
bin	-42	0
bin	-41	0
bin	-40	0
bin	-39	0
bin	-38	0
bin	-37	0
bin	-36	0
bin	-35	0
bin	-34	0
bin	-33	0
bin	-32	0
bin	-31	0
bin	-30	0
bin	-29	0
bin	-28	0
bin	-27	0
bin	-26	0
bin	-25	0
bin	-24	0
bin	-23	0
bin	-22	0
bin	-21	0
bin	-20	0
bin	-19	0
bin	-18	0
bin	-17	0
bin	-16	0
bin	-15	0
bin	-14	0
bin	-13	0
bin	-12	0
bin	-11	0
bin	-10	0
bin	-9	0
bin	-8	0
bin	-7	0
bin	-6	0
bin	-5	0
bin	-4	0
bin	-3	0
bin	-2	0
bin	-1	0
bin	0	1
bin	1	1
bin	2	1
bin	3	1
bin	4	1
bin	5	1
bin	6	2
bin	7	1
bin	8	1
bin	9	1
bin	10	1
bin	11	1
bin	12	1
bin	13	1
bin	14	1
bin	15	1
bin	16	1
bin	17	1
bin	18	2
bin	19	0
bin	20	0
bin	21	0
bin	22	0
bin	23	0
bin	24	0
bin	25	0
bin	26	8
bin	27	1
bin	28	1
bin	29	1
bin	30	1
bin	31	1
bin	32	1
bin	33	1
bin	34	1
bin	35	1
bin	36	2
bin	37	1
bin	38	1
bin	39	1
bin	40	1
bin	41	1
bin	42	1
bin	43	1
bin	44	1
bin	45	1
bin	46	2
bin	47	0
bin	48	0
bin	49	0
bin	50	0
bin	51	0
bin	52	0
bin	53	0
bin	54	8
bin	55	1
bin	56	1
bin	57	1
bin	58	1
bin	59	1
bin	60	1
bin	61	1
bin	62	1
bin	63	1
bin	64	1
bin	65	2
bin	66	1
bin	67	1
bin	68	1
bin	69	1
bin	70	1
bin	71	1
bin	72	1
bin	73	1
bin	74	1
bin	75	1
bin	76	2
bin	77	0
bin	78	0
bin	79	0
bin	80	0
bin	81	0
bin	82	0
bin	83	0
bin	84	8
bin	85	1
bin	86	1
bin	87	1
bin	88	1
bin	89	1
bin	90	1
bin	91	1
bin	92	1
bin	93	1
bin	94	1
bin	95	1
bin	96	1
bin	97	1
bin	98	1
bin	99	1
bin	100	1
bin	101	1
bin	102	1
bin	103	1
bin	104	1
bin	105	1
bin	106	2
bin	107	1
bin	108	1
bin	109	2
bin	110	0
bin	111	0
bin	112	0
bin	113	0
bin	114	0
bin	115	0
bin	116	0
bin	117	8
bin	118	1
bin	119	1
bin	120	1
bin	121	1
bin	122	1
bin	123	1
bin	124	2
bin	125	0
bin	126	0
bin	127	0
bin	128	0
bin	129	0
bin	130	0
bin	131	0
bin	132	8
bin	133	1
bin	134	1
bin	135	1
bin	136	1
bin	137	1
bin	138	2
bin	139	1
bin	140	324
scalar SimphonyDHTNetwork.members[12] 	#packetsInTheNetwork 	453
statistic SimphonyDHTNetwork.members[12] 	"packets statistics"
field count 481
field mean 226.42411642412
field stddev 131.15942493973
field sum 108910
field sqrsum 32917192
field min 0
field max 452
attr type  int
bin	-INF	0
bin	-46	0
bin	-45	0
bin	-44	0
bin	-43	0
bin	-42	0
bin	-41	0
bin	-40	0
bin	-39	0
bin	-38	0
bin	-37	0
bin	-36	0
bin	-35	0
bin	-34	0
bin	-33	0
bin	-32	0
bin	-31	0
bin	-30	0
bin	-29	0
bin	-28	0
bin	-27	0
bin	-26	0
bin	-25	0
bin	-24	0
bin	-23	0
bin	-22	0
bin	-21	0
bin	-20	0
bin	-19	0
bin	-18	0
bin	-17	0
bin	-16	0
bin	-15	0
bin	-14	0
bin	-13	0
bin	-12	0
bin	-11	0
bin	-10	0
bin	-9	0
bin	-8	0
bin	-7	0
bin	-6	0
bin	-5	0
bin	-4	0
bin	-3	0
bin	-2	0
bin	-1	0
bin	0	1
bin	1	1
bin	2	1
bin	3	2
bin	4	2
bin	5	1
bin	6	1
bin	7	2
bin	8	0
bin	9	0
bin	10	0
bin	11	0
bin	12	0
bin	13	0
bin	14	0
bin	15	8
bin	16	1
bin	17	1
bin	18	1
bin	19	1
bin	20	2
bin	21	0
bin	22	0
bin	23	0
bin	24	0
bin	25	0
bin	26	0
bin	27	0
bin	28	8
bin	29	1
bin	30	1
bin	31	1
bin	32	1
bin	33	1
bin	34	1
bin	35	1
bin	36	1
bin	37	1
bin	38	1
bin	39	1
bin	40	1
bin	41	1
bin	42	2
bin	43	0
bin	44	0
bin	45	0
bin	46	0
bin	47	0
bin	48	0
bin	49	0
bin	50	8
bin	51	1
bin	52	1
bin	53	1
bin	54	1
bin	55	1
bin	56	1
bin	57	1
bin	58	1
bin	59	2
bin	60	0
bin	61	0
bin	62	0
bin	63	0
bin	64	0
bin	65	0
bin	66	0
bin	67	8
bin	68	1
bin	69	1
bin	70	1
bin	71	1
bin	72	1
bin	73	1
bin	74	1
bin	75	1
bin	76	1
bin	77	1
bin	78	1
bin	79	2
bin	80	0
bin	81	0
bin	82	0
bin	83	0
bin	84	0
bin	85	0
bin	86	0
bin	87	8
bin	88	1
bin	89	1
bin	90	1
bin	91	1
bin	92	1
bin	93	1
bin	94	1
bin	95	1
bin	96	1
bin	97	2
bin	98	0
bin	99	0
bin	100	0
bin	101	0
bin	102	0
bin	103	0
bin	104	0
bin	105	8
bin	106	1
bin	107	1
bin	108	1
bin	109	2
bin	110	0
bin	111	0
bin	112	0
bin	113	0
bin	114	0
bin	115	0
bin	116	0
bin	117	8
bin	118	1
bin	119	1
bin	120	1
bin	121	1
bin	122	1
bin	123	1
bin	124	1
bin	125	1
bin	126	1
bin	127	1
bin	128	1
bin	129	1
bin	130	1
bin	131	1
bin	132	1
bin	133	1
bin	134	1
bin	135	1
bin	136	1
bin	137	1
bin	138	334
scalar SimphonyDHTNetwork.members[13] 	#packetsInTheNetwork 	438
statistic SimphonyDHTNetwork.members[13] 	"packets statistics"
field count 462
field mean 218.37662337662
field stddev 126.79724423
field sum 100890
field sqrsum 29443764
field min 0
field max 437
attr type  int
bin	-INF	0
bin	-46	0
bin	-45	0
bin	-44	0
bin	-43	0
bin	-42	0
bin	-41	0
bin	-40	0
bin	-39	0
bin	-38	0
bin	-37	0
bin	-36	0
bin	-35	0
bin	-34	0
bin	-33	0
bin	-32	0
bin	-31	0
bin	-30	0
bin	-29	0
bin	-28	0
bin	-27	0
bin	-26	0
bin	-25	0
bin	-24	0
bin	-23	0
bin	-22	0
bin	-21	0
bin	-20	0
bin	-19	0
bin	-18	0
bin	-17	0
bin	-16	0
bin	-15	0
bin	-14	0
bin	-13	0
bin	-12	0
bin	-11	0
bin	-10	0
bin	-9	0
bin	-8	0
bin	-7	0
bin	-6	0
bin	-5	0
bin	-4	0
bin	-3	0
bin	-2	0
bin	-1	0
bin	0	1
bin	1	1
bin	2	1
bin	3	2
bin	4	1
bin	5	2
bin	6	2
bin	7	1
bin	8	1
bin	9	1
bin	10	1
bin	11	1
bin	12	1
bin	13	1
bin	14	2
bin	15	0
bin	16	0
bin	17	0
bin	18	0
bin	19	0
bin	20	0
bin	21	0
bin	22	8
bin	23	1
bin	24	1
bin	25	1
bin	26	1
bin	27	1
bin	28	1
bin	29	1
bin	30	1
bin	31	1
bin	32	1
bin	33	1
bin	34	1
bin	35	2
bin	36	0
bin	37	0
bin	38	0
bin	39	0
bin	40	0
bin	41	0
bin	42	0
bin	43	8
bin	44	1
bin	45	1
bin	46	1
bin	47	1
bin	48	1
bin	49	1
bin	50	1
bin	51	1
bin	52	1
bin	53	1
bin	54	2
bin	55	0
bin	56	0
bin	57	0
bin	58	0
bin	59	0
bin	60	0
bin	61	0
bin	62	8
bin	63	1
bin	64	1
bin	65	1
bin	66	1
bin	67	1
bin	68	1
bin	69	1
bin	70	2
bin	71	0
bin	72	0
bin	73	0
bin	74	0
bin	75	0
bin	76	0
bin	77	0
bin	78	8
bin	79	1
bin	80	1
bin	81	1
bin	82	1
bin	83	1
bin	84	1
bin	85	1
bin	86	1
bin	87	1
bin	88	1
bin	89	1
bin	90	1
bin	91	1
bin	92	1
bin	93	1
bin	94	1
bin	95	1
bin	96	1
bin	97	1
bin	98	1
bin	99	1
bin	100	1
bin	101	1
bin	102	1
bin	103	1
bin	104	1
bin	105	1
bin	106	1
bin	107	1
bin	108	1
bin	109	1
bin	110	1
bin	111	1
bin	112	1
bin	113	1
bin	114	1
bin	115	1
bin	116	1
bin	117	1
bin	118	1
bin	119	1
bin	120	1
bin	121	1
bin	122	1
bin	123	1
bin	124	1
bin	125	1
bin	126	1
bin	127	1
bin	128	1
bin	129	1
bin	130	1
bin	131	1
bin	132	1
bin	133	1
bin	134	1
bin	135	1
bin	136	2
bin	137	0
bin	138	317
scalar SimphonyDHTNetwork.members[14] 	#packetsInTheNetwork 	453
statistic SimphonyDHTNetwork.members[14] 	"packets statistics"
field count 482
field mean 226.74273858921
field stddev 130.65776421816
field sum 109290
field sqrsum 32992082
field min 0
field max 452
attr type  int
bin	-INF	0
bin	-47	0
bin	-46	0
bin	-45	0
bin	-44	0
bin	-43	0
bin	-42	0
bin	-41	0
bin	-40	0
bin	-39	0
bin	-38	0
bin	-37	0
bin	-36	0
bin	-35	0
bin	-34	0
bin	-33	0
bin	-32	0
bin	-31	0
bin	-30	0
bin	-29	0
bin	-28	0
bin	-27	0
bin	-26	0
bin	-25	0
bin	-24	0
bin	-23	0
bin	-22	0
bin	-21	0
bin	-20	0
bin	-19	0
bin	-18	0
bin	-17	0
bin	-16	0
bin	-15	0
bin	-14	0
bin	-13	0
bin	-12	0
bin	-11	0
bin	-10	0
bin	-9	0
bin	-8	0
bin	-7	0
bin	-6	0
bin	-5	0
bin	-4	0
bin	-3	0
bin	-2	0
bin	-1	0
bin	0	1
bin	1	1
bin	2	1
bin	3	2
bin	4	0
bin	5	0
bin	6	0
bin	7	0
bin	8	0
bin	9	0
bin	10	0
bin	11	8
bin	12	1
bin	13	1
bin	14	1
bin	15	1
bin	16	1
bin	17	1
bin	18	1
bin	19	2
bin	20	1
bin	21	1
bin	22	1
bin	23	1
bin	24	1
bin	25	1
bin	26	1
bin	27	1
bin	28	1
bin	29	2
bin	30	0
bin	31	0
bin	32	0
bin	33	0
bin	34	0
bin	35	0
bin	36	0
bin	37	8
bin	38	1
bin	39	1
bin	40	1
bin	41	1
bin	42	1
bin	43	1
bin	44	1
bin	45	1
bin	46	1
bin	47	1
bin	48	1
bin	49	1
bin	50	2
bin	51	1
bin	52	1
bin	53	2
bin	54	0
bin	55	0
bin	56	0
bin	57	0
bin	58	0
bin	59	0
bin	60	0
bin	61	8
bin	62	1
bin	63	1
bin	64	1
bin	65	1
bin	66	1
bin	67	1
bin	68	1
bin	69	1
bin	70	1
bin	71	1
bin	72	1
bin	73	1
bin	74	1
bin	75	1
bin	76	1
bin	77	1
bin	78	1
bin	79	1
bin	80	1
bin	81	1
bin	82	1
bin	83	1
bin	84	1
bin	85	1
bin	86	1
bin	87	1
bin	88	1
bin	89	1
bin	90	1
bin	91	1
bin	92	1
bin	93	1
bin	94	1
bin	95	1
bin	96	1
bin	97	1
bin	98	2
bin	99	1
bin	100	1
bin	101	1
bin	102	1
bin	103	1
bin	104	1
bin	105	1
bin	106	2
bin	107	0
bin	108	0
bin	109	0
bin	110	0
bin	111	0
bin	112	0
bin	113	0
bin	114	8
bin	115	1
bin	116	1
bin	117	1
bin	118	1
bin	119	1
bin	120	1
bin	121	1
bin	122	0
bin	123	2
bin	124	0
bin	125	0
bin	126	0
bin	127	0
bin	128	0
bin	129	0
bin	130	0
bin	131	8
bin	132	1
bin	133	2
bin	134	1
bin	135	2
bin	136	1
bin	137	1
bin	138	1
bin	139	1
bin	140	1
bin	141	332
scalar SimphonyDHTNetwork.members[15] 	#packetsInTheNetwork 	442
statistic SimphonyDHTNetwork.members[15] 	"packets statistics"
field count 466
field mean 221.87339055794
field stddev 127.1716436409
field sum 103393
field sqrsum 30460427
field min 0
field max 441
attr type  int
bin	-INF	0
bin	-48	0
bin	-47	0
bin	-46	0
bin	-45	0
bin	-44	0
bin	-43	0
bin	-42	0
bin	-41	0
bin	-40	0
bin	-39	0
bin	-38	0
bin	-37	0
bin	-36	0
bin	-35	0
bin	-34	0
bin	-33	0
bin	-32	0
bin	-31	0
bin	-30	0
bin	-29	0
bin	-28	0
bin	-27	0
bin	-26	0
bin	-25	0
bin	-24	0
bin	-23	0
bin	-22	0
bin	-21	0
bin	-20	0
bin	-19	0
bin	-18	0
bin	-17	0
bin	-16	0
bin	-15	0
bin	-14	0
bin	-13	0
bin	-12	0
bin	-11	0
bin	-10	0
bin	-9	0
bin	-8	0
bin	-7	0
bin	-6	0
bin	-5	0
bin	-4	0
bin	-3	0
bin	-2	0
bin	-1	0
bin	0	1
bin	1	1
bin	2	2
bin	3	0
bin	4	0
bin	5	0
bin	6	0
bin	7	0
bin	8	0
bin	9	0
bin	10	8
bin	11	1
bin	12	1
bin	13	1
bin	14	1
bin	15	1
bin	16	1
bin	17	1
bin	18	1
bin	19	2
bin	20	1
bin	21	1
bin	22	1
bin	23	1
bin	24	1
bin	25	1
bin	26	2
bin	27	0
bin	28	0
bin	29	0
bin	30	0
bin	31	0
bin	32	0
bin	33	0
bin	34	8
bin	35	1
bin	36	1
bin	37	1
bin	38	1
bin	39	1
bin	40	1
bin	41	1
bin	42	1
bin	43	1
bin	44	1
bin	45	1
bin	46	1
bin	47	1
bin	48	1
bin	49	1
bin	50	1
bin	51	1
bin	52	1
bin	53	1
bin	54	1
bin	55	1
bin	56	1
bin	57	1
bin	58	1
bin	59	1
bin	60	1
bin	61	1
bin	62	1
bin	63	1
bin	64	1
bin	65	1
bin	66	1
bin	67	1
bin	68	1
bin	69	1
bin	70	1
bin	71	1
bin	72	1
bin	73	1
bin	74	1
bin	75	1
bin	76	1
bin	77	1
bin	78	1
bin	79	1
bin	80	1
bin	81	1
bin	82	1
bin	83	2
bin	84	0
bin	85	0
bin	86	0
bin	87	0
bin	88	0
bin	89	0
bin	90	0
bin	91	8
bin	92	1
bin	93	1
bin	94	1
bin	95	1
bin	96	1
bin	97	1
bin	98	1
bin	99	1
bin	100	1
bin	101	1
bin	102	1
bin	103	1
bin	104	1
bin	105	1
bin	106	1
bin	107	1
bin	108	1
bin	109	1
bin	110	1
bin	111	1
bin	112	1
bin	113	1
bin	114	1
bin	115	1
bin	116	1
bin	117	1
bin	118	1
bin	119	1
bin	120	1
bin	121	1
bin	122	1
bin	123	1
bin	124	1
bin	125	1
bin	126	1
bin	127	1
bin	128	1
bin	129	1
bin	130	2
bin	131	0
bin	132	0
bin	133	0
bin	134	0
bin	135	0
bin	136	0
bin	137	0
bin	138	8
bin	139	1
bin	140	1
bin	141	1
bin	142	1
bin	143	318
scalar SimphonyDHTNetwork.members[16] 	#packetsInTheNetwork 	511
statistic SimphonyDHTNetwork.members[16] 	"packets statistics"
field count 542
field mean 255.20848708487
field stddev 146.84696877489
field sum 138323
field sqrsum 46967345
field min 0
field max 510
attr type  int
bin	-INF	0
bin	-48	0
bin	-47	0
bin	-46	0
bin	-45	0
bin	-44	0
bin	-43	0
bin	-42	0
bin	-41	0
bin	-40	0
bin	-39	0
bin	-38	0
bin	-37	0
bin	-36	0
bin	-35	0
bin	-34	0
bin	-33	0
bin	-32	0
bin	-31	0
bin	-30	0
bin	-29	0
bin	-28	0
bin	-27	0
bin	-26	0
bin	-25	0
bin	-24	0
bin	-23	0
bin	-22	0
bin	-21	0
bin	-20	0
bin	-19	0
bin	-18	0
bin	-17	0
bin	-16	0
bin	-15	0
bin	-14	0
bin	-13	0
bin	-12	0
bin	-11	0
bin	-10	0
bin	-9	0
bin	-8	0
bin	-7	0
bin	-6	0
bin	-5	0
bin	-4	0
bin	-3	0
bin	-2	0
bin	-1	0
bin	0	1
bin	1	1
bin	2	1
bin	3	1
bin	4	1
bin	5	1
bin	6	1
bin	7	2
bin	8	0
bin	9	0
bin	10	0
bin	11	0
bin	12	0
bin	13	0
bin	14	0
bin	15	8
bin	16	1
bin	17	1
bin	18	1
bin	19	1
bin	20	1
bin	21	1
bin	22	1
bin	23	1
bin	24	2
bin	25	0
bin	26	0
bin	27	0
bin	28	0
bin	29	0
bin	30	0
bin	31	0
bin	32	8
bin	33	1
bin	34	1
bin	35	1
bin	36	1
bin	37	1
bin	38	2
bin	39	0
bin	40	0
bin	41	0
bin	42	0
bin	43	0
bin	44	0
bin	45	0
bin	46	8
bin	47	1
bin	48	1
bin	49	1
bin	50	1
bin	51	1
bin	52	1
bin	53	1
bin	54	1
bin	55	1
bin	56	1
bin	57	1
bin	58	1
bin	59	1
bin	60	1
bin	61	1
bin	62	1
bin	63	1
bin	64	1
bin	65	1
bin	66	1
bin	67	1
bin	68	1
bin	69	1
bin	70	1
bin	71	1
bin	72	1
bin	73	1
bin	74	1
bin	75	1
bin	76	1
bin	77	1
bin	78	1
bin	79	1
bin	80	1
bin	81	1
bin	82	1
bin	83	1
bin	84	1
bin	85	2
bin	86	0
bin	87	0
bin	88	0
bin	89	0
bin	90	0
bin	91	0
bin	92	0
bin	93	8
bin	94	1
bin	95	1
bin	96	1
bin	97	1
bin	98	2
bin	99	0
bin	100	0
bin	101	0
bin	102	0
bin	103	0
bin	104	0
bin	105	0
bin	106	8
bin	107	1
bin	108	1
bin	109	1
bin	110	1
bin	111	2
bin	112	0
bin	113	0
bin	114	0
bin	115	0
bin	116	0
bin	117	0
bin	118	0
bin	119	8
bin	120	1
bin	121	1
bin	122	1
bin	123	1
bin	124	1
bin	125	2
bin	126	1
bin	127	1
bin	128	1
bin	129	2
bin	130	0
bin	131	0
bin	132	0
bin	133	0
bin	134	0
bin	135	0
bin	136	0
bin	137	8
bin	138	1
bin	139	1
bin	140	1
bin	141	1
bin	142	2
bin	143	390
scalar SimphonyDHTNetwork.members[17] 	#packetsInTheNetwork 	424
statistic SimphonyDHTNetwork.members[17] 	"packets statistics"
field count 448
field mean 212.17410714286
field stddev 121.95395048734
field sum 95054
field sqrsum 26816124
field min 0
field max 423
attr type  int
bin	-INF	0
bin	-48	0
bin	-47	0
bin	-46	0
bin	-45	0
bin	-44	0
bin	-43	0
bin	-42	0
bin	-41	0
bin	-40	0
bin	-39	0
bin	-38	0
bin	-37	0
bin	-36	0
bin	-35	0
bin	-34	0
bin	-33	0
bin	-32	0
bin	-31	0
bin	-30	0
bin	-29	0
bin	-28	0
bin	-27	0
bin	-26	0
bin	-25	0
bin	-24	0
bin	-23	0
bin	-22	0
bin	-21	0
bin	-20	0
bin	-19	0
bin	-18	0
bin	-17	0
bin	-16	0
bin	-15	0
bin	-14	0
bin	-13	0
bin	-12	0
bin	-11	0
bin	-10	0
bin	-9	0
bin	-8	0
bin	-7	0
bin	-6	0
bin	-5	0
bin	-4	0
bin	-3	0
bin	-2	0
bin	-1	0
bin	0	1
bin	1	1
bin	2	1
bin	3	1
bin	4	1
bin	5	1
bin	6	1
bin	7	2
bin	8	0
bin	9	0
bin	10	0
bin	11	0
bin	12	0
bin	13	0
bin	14	0
bin	15	8
bin	16	1
bin	17	1
bin	18	1
bin	19	1
bin	20	1
bin	21	1
bin	22	1
bin	23	1
bin	24	1
bin	25	1
bin	26	2
bin	27	0
bin	28	0
bin	29	0
bin	30	0
bin	31	0
bin	32	0
bin	33	0
bin	34	8
bin	35	1
bin	36	1
bin	37	1
bin	38	1
bin	39	1
bin	40	1
bin	41	1
bin	42	1
bin	43	1
bin	44	1
bin	45	1
bin	46	1
bin	47	1
bin	48	1
bin	49	1
bin	50	1
bin	51	1
bin	52	1
bin	53	1
bin	54	2
bin	55	0
bin	56	0
bin	57	0
bin	58	0
bin	59	0
bin	60	0
bin	61	0
bin	62	8
bin	63	1
bin	64	1
bin	65	1
bin	66	1
bin	67	2
bin	68	0
bin	69	0
bin	70	0
bin	71	0
bin	72	0
bin	73	0
bin	74	0
bin	75	8
bin	76	1
bin	77	1
bin	78	1
bin	79	1
bin	80	1
bin	81	1
bin	82	1
bin	83	1
bin	84	1
bin	85	1
bin	86	1
bin	87	1
bin	88	1
bin	89	1
bin	90	1
bin	91	1
bin	92	1
bin	93	1
bin	94	1
bin	95	1
bin	96	1
bin	97	1
bin	98	1
bin	99	2
bin	100	0
bin	101	0
bin	102	0
bin	103	0
bin	104	0
bin	105	0
bin	106	0
bin	107	8
bin	108	1
bin	109	1
bin	110	1
bin	111	1
bin	112	1
bin	113	1
bin	114	1
bin	115	1
bin	116	1
bin	117	1
bin	118	1
bin	119	1
bin	120	1
bin	121	1
bin	122	1
bin	123	1
bin	124	1
bin	125	1
bin	126	1
bin	127	1
bin	128	1
bin	129	1
bin	130	1
bin	131	1
bin	132	2
bin	133	1
bin	134	2
bin	135	2
bin	136	1
bin	137	1
bin	138	1
bin	139	1
bin	140	1
bin	141	1
bin	142	1
bin	143	297
scalar SimphonyDHTNetwork.members[18] 	#packetsInTheNetwork 	527
statistic SimphonyDHTNetwork.members[18] 	"packets statistics"
field count 562
field mean 264.15836298932
field stddev 151.97399220278
field sum 148457
field sqrsum 52173067
field min 0
field max 526
attr type  int
bin	-INF	0
bin	-47	0
bin	-46	0
bin	-45	0
bin	-44	0
bin	-43	0
bin	-42	0
bin	-41	0
bin	-40	0
bin	-39	0
bin	-38	0
bin	-37	0
bin	-36	0
bin	-35	0
bin	-34	0
bin	-33	0
bin	-32	0
bin	-31	0
bin	-30	0
bin	-29	0
bin	-28	0
bin	-27	0
bin	-26	0
bin	-25	0
bin	-24	0
bin	-23	0
bin	-22	0
bin	-21	0
bin	-20	0
bin	-19	0
bin	-18	0
bin	-17	0
bin	-16	0
bin	-15	0
bin	-14	0
bin	-13	0
bin	-12	0
bin	-11	0
bin	-10	0
bin	-9	0
bin	-8	0
bin	-7	0
bin	-6	0
bin	-5	0
bin	-4	0
bin	-3	0
bin	-2	0
bin	-1	0
bin	0	1
bin	1	1
bin	2	1
bin	3	1
bin	4	1
bin	5	1
bin	6	1
bin	7	2
bin	8	0
bin	9	0
bin	10	0
bin	11	0
bin	12	0
bin	13	0
bin	14	0
bin	15	8
bin	16	1
bin	17	1
bin	18	1
bin	19	1
bin	20	1
bin	21	1
bin	22	1
bin	23	1
bin	24	1
bin	25	1
bin	26	1
bin	27	2
bin	28	0
bin	29	0
bin	30	0
bin	31	0
bin	32	0
bin	33	0
bin	34	0
bin	35	8
bin	36	1
bin	37	1
bin	38	1
bin	39	1
bin	40	1
bin	41	2
bin	42	0
bin	43	0
bin	44	0
bin	45	0
bin	46	0
bin	47	0
bin	48	0
bin	49	8
bin	50	1
bin	51	1
bin	52	1
bin	53	1
bin	54	1
bin	55	1
bin	56	1
bin	57	1
bin	58	2
bin	59	0
bin	60	0
bin	61	0
bin	62	0
bin	63	0
bin	64	0
bin	65	0
bin	66	8
bin	67	1
bin	68	1
bin	69	1
bin	70	1
bin	71	2
bin	72	0
bin	73	0
bin	74	0
bin	75	0
bin	76	0
bin	77	0
bin	78	0
bin	79	8
bin	80	1
bin	81	1
bin	82	1
bin	83	1
bin	84	1
bin	85	1
bin	86	1
bin	87	1
bin	88	1
bin	89	1
bin	90	1
bin	91	1
bin	92	2
bin	93	2
bin	94	1
bin	95	1
bin	96	2
bin	97	0
bin	98	0
bin	99	0
bin	100	0
bin	101	0
bin	102	0
bin	103	0
bin	104	8
bin	105	1
bin	106	1
bin	107	1
bin	108	1
bin	109	1
bin	110	2
bin	111	0
bin	112	0
bin	113	0
bin	114	0
bin	115	0
bin	116	0
bin	117	0
bin	118	8
bin	119	1
bin	120	1
bin	121	1
bin	122	1
bin	123	1
bin	124	2
bin	125	0
bin	126	0
bin	127	0
bin	128	0
bin	129	0
bin	130	0
bin	131	0
bin	132	8
bin	133	1
bin	134	1
bin	135	1
bin	136	1
bin	137	1
bin	138	1
bin	139	1
bin	140	412
scalar SimphonyDHTNetwork.members[19] 	#packetsInTheNetwork 	302
statistic SimphonyDHTNetwork.members[19] 	"packets statistics"
field count 338
field mean 152.51183431953
field stddev 86.548016769388
field sum 51549
field sqrsum 10386151
field min 0
field max 301
attr type  int
bin	-INF	0
bin	-46	0
bin	-45	0
bin	-44	0
bin	-43	0
bin	-42	0
bin	-41	0
bin	-40	0
bin	-39	0
bin	-38	0
bin	-37	0
bin	-36	0
bin	-35	0
bin	-34	0
bin	-33	0
bin	-32	0
bin	-31	0
bin	-30	0
bin	-29	0
bin	-28	0
bin	-27	0
bin	-26	0
bin	-25	0
bin	-24	0
bin	-23	0
bin	-22	0
bin	-21	0
bin	-20	0
bin	-19	0
bin	-18	0
bin	-17	0
bin	-16	0
bin	-15	0
bin	-14	0
bin	-13	0
bin	-12	0
bin	-11	0
bin	-10	0
bin	-9	0
bin	-8	0
bin	-7	0
bin	-6	0
bin	-5	0
bin	-4	0
bin	-3	0
bin	-2	0
bin	-1	0
bin	0	1
bin	1	1
bin	2	1
bin	3	1
bin	4	1
bin	5	1
bin	6	1
bin	7	1
bin	8	1
bin	9	2
bin	10	0
bin	11	0
bin	12	0
bin	13	0
bin	14	0
bin	15	0
bin	16	0
bin	17	8
bin	18	1
bin	19	1
bin	20	1
bin	21	1
bin	22	1
bin	23	1
bin	24	1
bin	25	2
bin	26	0
bin	27	0
bin	28	0
bin	29	0
bin	30	0
bin	31	0
bin	32	0
bin	33	8
bin	34	1
bin	35	1
bin	36	1
bin	37	1
bin	38	1
bin	39	1
bin	40	1
bin	41	1
bin	42	1
bin	43	1
bin	44	2
bin	45	0
bin	46	0
bin	47	0
bin	48	0
bin	49	0
bin	50	0
bin	51	0
bin	52	8
bin	53	1
bin	54	1
bin	55	1
bin	56	1
bin	57	1
bin	58	1
bin	59	1
bin	60	1
bin	61	1
bin	62	1
bin	63	1
bin	64	1
bin	65	1
bin	66	1
bin	67	1
bin	68	2
bin	69	1
bin	70	2
bin	71	2
bin	72	1
bin	73	1
bin	74	1
bin	75	1
bin	76	2
bin	77	0
bin	78	0
bin	79	0
bin	80	0
bin	81	0
bin	82	0
bin	83	0
bin	84	8
bin	85	1
bin	86	1
bin	87	1
bin	88	1
bin	89	2
bin	90	1
bin	91	2
bin	92	1
bin	93	2
bin	94	0
bin	95	1
bin	96	2
bin	97	1
bin	98	1
bin	99	2
bin	100	0
bin	101	2
bin	102	1
bin	103	1
bin	104	1
bin	105	1
bin	106	2
bin	107	0
bin	108	2
bin	109	1
bin	110	2
bin	111	1
bin	112	1
bin	113	1
bin	114	1
bin	115	1
bin	116	1
bin	117	1
bin	118	1
bin	119	1
bin	120	1
bin	121	2
bin	122	0
bin	123	0
bin	124	3
bin	125	1
bin	126	1
bin	127	1
bin	128	1
bin	129	1
bin	130	1
bin	131	1
bin	132	1
bin	133	2
bin	134	0
bin	135	0
bin	136	1
bin	137	188
scalar SimphonyDHTNetwork.members[20] 	#packetsInTheNetwork 	389
statistic SimphonyDHTNetwork.members[20] 	"packets statistics"
field count 420
field mean 197.80476190476
field stddev 113.04720528019
field sum 83078
field sqrsum 21787906
field min 0
field max 389
attr type  int
bin	-INF	0
bin	-47	0
bin	-46	0
bin	-45	0
bin	-44	0
bin	-43	0
bin	-42	0
bin	-41	0
bin	-40	0
bin	-39	0
bin	-38	0
bin	-37	0
bin	-36	0
bin	-35	0
bin	-34	0
bin	-33	0
bin	-32	0
bin	-31	0
bin	-30	0
bin	-29	0
bin	-28	0
bin	-27	0
bin	-26	0
bin	-25	0
bin	-24	0
bin	-23	0
bin	-22	0
bin	-21	0
bin	-20	0
bin	-19	0
bin	-18	0
bin	-17	0
bin	-16	0
bin	-15	0
bin	-14	0
bin	-13	0
bin	-12	0
bin	-11	0
bin	-10	0
bin	-9	0
bin	-8	0
bin	-7	0
bin	-6	0
bin	-5	0
bin	-4	0
bin	-3	0
bin	-2	0
bin	-1	0
bin	0	1
bin	1	1
bin	2	1
bin	3	1
bin	4	1
bin	5	1
bin	6	1
bin	7	2
bin	8	0
bin	9	0
bin	10	0
bin	11	0
bin	12	0
bin	13	0
bin	14	0
bin	15	8
bin	16	1
bin	17	1
bin	18	1
bin	19	1
bin	20	1
bin	21	2
bin	22	0
bin	23	0
bin	24	0
bin	25	0
bin	26	0
bin	27	0
bin	28	0
bin	29	8
bin	30	1
bin	31	1
bin	32	1
bin	33	1
bin	34	1
bin	35	1
bin	36	1
bin	37	1
bin	38	1
bin	39	1
bin	40	1
bin	41	1
bin	42	1
bin	43	1
bin	44	1
bin	45	1
bin	46	1
bin	47	1
bin	48	1
bin	49	1
bin	50	1
bin	51	1
bin	52	1
bin	53	1
bin	54	1
bin	55	1
bin	56	1
bin	57	2
bin	58	0
bin	59	0
bin	60	0
bin	61	0
bin	62	0
bin	63	0
bin	64	0
bin	65	8
bin	66	1
bin	67	1
bin	68	1
bin	69	1
bin	70	1
bin	71	1
bin	72	1
bin	73	1
bin	74	1
bin	75	1
bin	76	2
bin	77	2
bin	78	1
bin	79	1
bin	80	2
bin	81	0
bin	82	0
bin	83	0
bin	84	0
bin	85	0
bin	86	0
bin	87	0
bin	88	8
bin	89	1
bin	90	1
bin	91	1
bin	92	1
bin	93	1
bin	94	1
bin	95	1
bin	96	1
bin	97	1
bin	98	1
bin	99	1
bin	100	1
bin	101	0
bin	102	2
bin	103	0
bin	104	0
bin	105	0
bin	106	0
bin	107	0
bin	108	0
bin	109	0
bin	110	8
bin	111	1
bin	112	2
bin	113	1
bin	114	2
bin	115	0
bin	116	0
bin	117	0
bin	118	0
bin	119	0
bin	120	0
bin	121	0
bin	122	8
bin	123	1
bin	124	1
bin	125	1
bin	126	1
bin	127	1
bin	128	1
bin	129	1
bin	130	1
bin	131	1
bin	132	1
bin	133	1
bin	134	1
bin	135	1
bin	136	1
bin	137	1
bin	138	2
bin	139	1
bin	140	271
scalar SimphonyDHTNetwork.members[21] 	#packetsInTheNetwork 	230
statistic SimphonyDHTNetwork.members[21] 	"packets statistics"
field count 250
field mean 115.484
field stddev 65.443265720106
field sum 28871
field sqrsum 4400561
field min 0
field max 229
attr type  int
bin	-INF	0
bin	-47	0
bin	-46	0
bin	-45	0
bin	-44	0
bin	-43	0
bin	-42	0
bin	-41	0
bin	-40	0
bin	-39	0
bin	-38	0
bin	-37	0
bin	-36	0
bin	-35	0
bin	-34	0
bin	-33	0
bin	-32	0
bin	-31	0
bin	-30	0
bin	-29	0
bin	-28	0
bin	-27	0
bin	-26	0
bin	-25	0
bin	-24	0
bin	-23	0
bin	-22	0
bin	-21	0
bin	-20	0
bin	-19	0
bin	-18	0
bin	-17	0
bin	-16	0
bin	-15	0
bin	-14	0
bin	-13	0
bin	-12	0
bin	-11	0
bin	-10	0
bin	-9	0
bin	-8	0
bin	-7	0
bin	-6	0
bin	-5	0
bin	-4	0
bin	-3	0
bin	-2	0
bin	-1	0
bin	0	1
bin	1	1
bin	2	1
bin	3	1
bin	4	1
bin	5	1
bin	6	1
bin	7	1
bin	8	1
bin	9	1
bin	10	1
bin	11	1
bin	12	1
bin	13	2
bin	14	0
bin	15	0
bin	16	0
bin	17	0
bin	18	0
bin	19	0
bin	20	0
bin	21	8
bin	22	1
bin	23	1
bin	24	1
bin	25	1
bin	26	1
bin	27	1
bin	28	1
bin	29	1
bin	30	1
bin	31	1
bin	32	1
bin	33	1
bin	34	1
bin	35	1
bin	36	1
bin	37	1
bin	38	1
bin	39	1
bin	40	1
bin	41	1
bin	42	1
bin	43	1
bin	44	1
bin	45	0
bin	46	2
bin	47	0
bin	48	0
bin	49	0
bin	50	0
bin	51	0
bin	52	0
bin	53	0
bin	54	8
bin	55	1
bin	56	2
bin	57	1
bin	58	1
bin	59	2
bin	60	0
bin	61	0
bin	62	0
bin	63	0
bin	64	0
bin	65	0
bin	66	0
bin	67	8
bin	68	1
bin	69	1
bin	70	1
bin	71	1
bin	72	1
bin	73	1
bin	74	1
bin	75	2
bin	76	1
bin	77	2
bin	78	2
bin	79	1
bin	80	1
bin	81	1
bin	82	1
bin	83	1
bin	84	1
bin	85	1
bin	86	1
bin	87	1
bin	88	1
bin	89	1
bin	90	1
bin	91	1
bin	92	1
bin	93	1
bin	94	1
bin	95	1
bin	96	1
bin	97	1
bin	98	1
bin	99	2
bin	100	1
bin	101	2
bin	102	1
bin	103	2
bin	104	0
bin	105	1
bin	106	2
bin	107	1
bin	108	1
bin	109	2
bin	110	0
bin	111	2
bin	112	1
bin	113	1
bin	114	1
bin	115	1
bin	116	2
bin	117	0
bin	118	0
bin	119	3
bin	120	1
bin	121	2
bin	122	1
bin	123	1
bin	124	1
bin	125	1
bin	126	1
bin	127	1
bin	128	1
bin	129	1
bin	130	2
bin	131	0
bin	132	0
bin	133	3
bin	134	1
bin	135	1
bin	136	1
bin	137	1
bin	138	1
bin	139	1
bin	140	97
scalar SimphonyDHTNetwork.members[22] 	#packetsInTheNetwork 	399
statistic SimphonyDHTNetwork.members[22] 	"packets statistics"
field count 422
field mean 201.19194312796
field stddev 115.815188316
field sum 84903
field sqrsum 22728739
field min 0
field max 398
attr type  int
bin	-INF	0
bin	-47	0
bin	-46	0
bin	-45	0
bin	-44	0
bin	-43	0
bin	-42	0
bin	-41	0
bin	-40	0
bin	-39	0
bin	-38	0
bin	-37	0
bin	-36	0
bin	-35	0
bin	-34	0
bin	-33	0
bin	-32	0
bin	-31	0
bin	-30	0
bin	-29	0
bin	-28	0
bin	-27	0
bin	-26	0
bin	-25	0
bin	-24	0
bin	-23	0
bin	-22	0
bin	-21	0
bin	-20	0
bin	-19	0
bin	-18	0
bin	-17	0
bin	-16	0
bin	-15	0
bin	-14	0
bin	-13	0
bin	-12	0
bin	-11	0
bin	-10	0
bin	-9	0
bin	-8	0
bin	-7	0
bin	-6	0
bin	-5	0
bin	-4	0
bin	-3	0
bin	-2	0
bin	-1	0
bin	0	1
bin	1	1
bin	2	1
bin	3	1
bin	4	1
bin	5	1
bin	6	1
bin	7	1
bin	8	1
bin	9	1
bin	10	1
bin	11	1
bin	12	1
bin	13	1
bin	14	2
bin	15	0
bin	16	0
bin	17	0
bin	18	0
bin	19	0
bin	20	0
bin	21	0
bin	22	8
bin	23	1
bin	24	1
bin	25	1
bin	26	2
bin	27	0
bin	28	0
bin	29	0
bin	30	0
bin	31	0
bin	32	0
bin	33	0
bin	34	8
bin	35	1
bin	36	1
bin	37	1
bin	38	1
bin	39	2
bin	40	0
bin	41	0
bin	42	0
bin	43	0
bin	44	0
bin	45	0
bin	46	0
bin	47	8
bin	48	1
bin	49	1
bin	50	1
bin	51	1
bin	52	1
bin	53	1
bin	54	1
bin	55	1
bin	56	1
bin	57	1
bin	58	1
bin	59	1
bin	60	1
bin	61	1
bin	62	1
bin	63	2
bin	64	0
bin	65	0
bin	66	0
bin	67	0
bin	68	0
bin	69	0
bin	70	0
bin	71	8
bin	72	1
bin	73	1
bin	74	1
bin	75	1
bin	76	2
bin	77	0
bin	78	0
bin	79	0
bin	80	0
bin	81	0
bin	82	0
bin	83	0
bin	84	8
bin	85	1
bin	86	1
bin	87	1
bin	88	1
bin	89	1
bin	90	1
bin	91	1
bin	92	1
bin	93	1
bin	94	1
bin	95	1
bin	96	2
bin	97	0
bin	98	0
bin	99	0
bin	100	0
bin	101	0
bin	102	0
bin	103	0
bin	104	8
bin	105	1
bin	106	1
bin	107	1
bin	108	1
bin	109	2
bin	110	0
bin	111	0
bin	112	0
bin	113	0
bin	114	0
bin	115	0
bin	116	0
bin	117	8
bin	118	1
bin	119	1
bin	120	1
bin	121	1
bin	122	1
bin	123	1
bin	124	1
bin	125	1
bin	126	1
bin	127	1
bin	128	1
bin	129	1
bin	130	1
bin	131	1
bin	132	1
bin	133	1
bin	134	1
bin	135	1
bin	136	0
bin	137	2
bin	138	0
bin	139	0
bin	140	0
bin	141	277
scalar SimphonyDHTNetwork.members[23] 	#packetsInTheNetwork 	374
statistic SimphonyDHTNetwork.members[23] 	"packets statistics"
field count 400
field mean 186.9925
field stddev 108.22777171399
field sum 74797
field sqrsum 18660065
field min 0
field max 373
attr type  int
bin	-INF	0
bin	-46	0
bin	-45	0
bin	-44	0
bin	-43	0
bin	-42	0
bin	-41	0
bin	-40	0
bin	-39	0
bin	-38	0
bin	-37	0
bin	-36	0
bin	-35	0
bin	-34	0
bin	-33	0
bin	-32	0
bin	-31	0
bin	-30	0
bin	-29	0
bin	-28	0
bin	-27	0
bin	-26	0
bin	-25	0
bin	-24	0
bin	-23	0
bin	-22	0
bin	-21	0
bin	-20	0
bin	-19	0
bin	-18	0
bin	-17	0
bin	-16	0
bin	-15	0
bin	-14	0
bin	-13	0
bin	-12	0
bin	-11	0
bin	-10	0
bin	-9	0
bin	-8	0
bin	-7	0
bin	-6	0
bin	-5	0
bin	-4	0
bin	-3	0
bin	-2	0
bin	-1	0
bin	0	1
bin	1	1
bin	2	1
bin	3	1
bin	4	1
bin	5	1
bin	6	2
bin	7	2
bin	8	1
bin	9	1
bin	10	2
bin	11	0
bin	12	0
bin	13	0
bin	14	0
bin	15	0
bin	16	0
bin	17	0
bin	18	8
bin	19	1
bin	20	1
bin	21	1
bin	22	1
bin	23	2
bin	24	0
bin	25	0
bin	26	0
bin	27	0
bin	28	0
bin	29	0
bin	30	0
bin	31	8
bin	32	1
bin	33	1
bin	34	1
bin	35	1
bin	36	1
bin	37	1
bin	38	1
bin	39	1
bin	40	1
bin	41	1
bin	42	1
bin	43	1
bin	44	1
bin	45	1
bin	46	1
bin	47	2
bin	48	0
bin	49	0
bin	50	0
bin	51	0
bin	52	0
bin	53	0
bin	54	0
bin	55	8
bin	56	1
bin	57	1
bin	58	1
bin	59	1
bin	60	2
bin	61	0
bin	62	0
bin	63	0
bin	64	0
bin	65	0
bin	66	0
bin	67	0
bin	68	8
bin	69	1
bin	70	1
bin	71	1
bin	72	1
bin	73	1
bin	74	1
bin	75	1
bin	76	1
bin	77	1
bin	78	1
bin	79	1
bin	80	1
bin	81	1
bin	82	2
bin	83	0
bin	84	0
bin	85	0
bin	86	0
bin	87	0
bin	88	0
bin	89	0
bin	90	8
bin	91	1
bin	92	1
bin	93	1
bin	94	1
bin	95	1
bin	96	1
bin	97	1
bin	98	1
bin	99	2
bin	100	1
bin	101	1
bin	102	1
bin	103	2
bin	104	0
bin	105	0
bin	106	0
bin	107	0
bin	108	0
bin	109	0
bin	110	0
bin	111	8
bin	112	1
bin	113	1
bin	114	1
bin	115	2
bin	116	0
bin	117	0
bin	118	0
bin	119	0
bin	120	0
bin	121	0
bin	122	0
bin	123	8
bin	124	1
bin	125	1
bin	126	1
bin	127	1
bin	128	2
bin	129	0
bin	130	0
bin	131	0
bin	132	0
bin	133	0
bin	134	0
bin	135	0
bin	136	8
bin	137	1
bin	138	251
scalar SimphonyDHTNetwork.members[24] 	#packetsInTheNetwork 	343
statistic SimphonyDHTNetwork.members[24] 	"packets statistics"
field count 364
field mean 171.96703296703
field stddev 99.664528263205
field sum 62596
field sqrsum 14370134
field min 0
field max 342
attr type  int
bin	-INF	0
bin	-47	0
bin	-46	0
bin	-45	0
bin	-44	0
bin	-43	0
bin	-42	0
bin	-41	0
bin	-40	0
bin	-39	0
bin	-38	0
bin	-37	0
bin	-36	0
bin	-35	0
bin	-34	0
bin	-33	0
bin	-32	0
bin	-31	0
bin	-30	0
bin	-29	0
bin	-28	0
bin	-27	0
bin	-26	0
bin	-25	0
bin	-24	0
bin	-23	0
bin	-22	0
bin	-21	0
bin	-20	0
bin	-19	0
bin	-18	0
bin	-17	0
bin	-16	0
bin	-15	0
bin	-14	0
bin	-13	0
bin	-12	0
bin	-11	0
bin	-10	0
bin	-9	0
bin	-8	0
bin	-7	0
bin	-6	0
bin	-5	0
bin	-4	0
bin	-3	0
bin	-2	0
bin	-1	0
bin	0	1
bin	1	1
bin	2	1
bin	3	1
bin	4	1
bin	5	1
bin	6	1
bin	7	2
bin	8	1
bin	9	2
bin	10	2
bin	11	1
bin	12	1
bin	13	1
bin	14	1
bin	15	1
bin	16	1
bin	17	1
bin	18	1
bin	19	1
bin	20	1
bin	21	1
bin	22	1
bin	23	1
bin	24	1
bin	25	1
bin	26	1
bin	27	1
bin	28	1
bin	29	1
bin	30	1
bin	31	1
bin	32	1
bin	33	1
bin	34	1
bin	35	1
bin	36	2
bin	37	0
bin	38	0
bin	39	0
bin	40	0
bin	41	0
bin	42	0
bin	43	0
bin	44	8
bin	45	1
bin	46	1
bin	47	1
bin	48	2
bin	49	0
bin	50	0
bin	51	0
bin	52	0
bin	53	0
bin	54	0
bin	55	0
bin	56	8
bin	57	1
bin	58	1
bin	59	1
bin	60	1
bin	61	1
bin	62	1
bin	63	1
bin	64	1
bin	65	1
bin	66	1
bin	67	1
bin	68	1
bin	69	1
bin	70	1
bin	71	1
bin	72	1
bin	73	1
bin	74	1
bin	75	1
bin	76	1
bin	77	1
bin	78	1
bin	79	1
bin	80	1
bin	81	1
bin	82	1
bin	83	1
bin	84	1
bin	85	2
bin	86	0
bin	87	0
bin	88	0
bin	89	0
bin	90	0
bin	91	0
bin	92	0
bin	93	8
bin	94	1
bin	95	1
bin	96	1
bin	97	1
bin	98	1
bin	99	0
bin	100	2
bin	101	0
bin	102	0
bin	103	0
bin	104	0
bin	105	0
bin	106	0
bin	107	0
bin	108	8
bin	109	1
bin	110	2
bin	111	1
bin	112	1
bin	113	1
bin	114	1
bin	115	1
bin	116	1
bin	117	1
bin	118	1
bin	119	1
bin	120	1
bin	121	1
bin	122	1
bin	123	2
bin	124	0
bin	125	0
bin	126	0
bin	127	0
bin	128	0
bin	129	0
bin	130	0
bin	131	8
bin	132	1
bin	133	1
bin	134	1
bin	135	1
bin	136	1
bin	137	1
bin	138	1
bin	139	1
bin	140	216
scalar SimphonyDHTNetwork.members[25] 	#packetsInTheNetwork 	307
statistic SimphonyDHTNetwork.members[25] 	"packets statistics"
field count 323
field mean 155.27244582043
field stddev 88.943942579802
field sum 50153
field sqrsum 10334729
field min 0
field max 306
attr type  int
bin	-INF	0
bin	-48	0
bin	-47	0
bin	-46	0
bin	-45	0
bin	-44	0
bin	-43	0
bin	-42	0
bin	-41	0
bin	-40	0
bin	-39	0
bin	-38	0
bin	-37	0
bin	-36	0
bin	-35	0
bin	-34	0
bin	-33	0
bin	-32	0
bin	-31	0
bin	-30	0
bin	-29	0
bin	-28	0
bin	-27	0
bin	-26	0
bin	-25	0
bin	-24	0
bin	-23	0
bin	-22	0
bin	-21	0
bin	-20	0
bin	-19	0
bin	-18	0
bin	-17	0
bin	-16	0
bin	-15	0
bin	-14	0
bin	-13	0
bin	-12	0
bin	-11	0
bin	-10	0
bin	-9	0
bin	-8	0
bin	-7	0
bin	-6	0
bin	-5	0
bin	-4	0
bin	-3	0
bin	-2	0
bin	-1	0
bin	0	1
bin	1	1
bin	2	2
bin	3	0
bin	4	0
bin	5	0
bin	6	0
bin	7	0
bin	8	0
bin	9	0
bin	10	8
bin	11	1
bin	12	1
bin	13	1
bin	14	1
bin	15	1
bin	16	2
bin	17	0
bin	18	0
bin	19	0
bin	20	0
bin	21	0
bin	22	0
bin	23	0
bin	24	8
bin	25	1
bin	26	1
bin	27	1
bin	28	1
bin	29	1
bin	30	1
bin	31	1
bin	32	1
bin	33	1
bin	34	1
bin	35	1
bin	36	1
bin	37	1
bin	38	1
bin	39	1
bin	40	1
bin	41	1
bin	42	1
bin	43	1
bin	44	1
bin	45	1
bin	46	1
bin	47	1
bin	48	1
bin	49	1
bin	50	1
bin	51	1
bin	52	1
bin	53	1
bin	54	1
bin	55	1
bin	56	1
bin	57	1
bin	58	1
bin	59	1
bin	60	1
bin	61	1
bin	62	1
bin	63	1
bin	64	1
bin	65	1
bin	66	1
bin	67	1
bin	68	1
bin	69	1
bin	70	1
bin	71	1
bin	72	1
bin	73	1
bin	74	1
bin	75	1
bin	76	1
bin	77	1
bin	78	1
bin	79	1
bin	80	2
bin	81	0
bin	82	0
bin	83	0
bin	84	0
bin	85	0
bin	86	0
bin	87	0
bin	88	8
bin	89	1
bin	90	1
bin	91	1
bin	92	1
bin	93	1
bin	94	1
bin	95	1
bin	96	1
bin	97	1
bin	98	1
bin	99	1
bin	100	1
bin	101	2
bin	102	0
bin	103	0
bin	104	0
bin	105	0
bin	106	0
bin	107	0
bin	108	0
bin	109	8
bin	110	1
bin	111	1
bin	112	1
bin	113	1
bin	114	1
bin	115	1
bin	116	1
bin	117	1
bin	118	1
bin	119	1
bin	120	1
bin	121	1
bin	122	1
bin	123	1
bin	124	1
bin	125	1
bin	126	1
bin	127	1
bin	128	1
bin	129	1
bin	130	1
bin	131	1
bin	132	1
bin	133	1
bin	134	1
bin	135	1
bin	136	1
bin	137	2
bin	138	0
bin	139	0
bin	140	0
bin	141	0
bin	142	0
bin	143	0
bin	144	180
scalar SimphonyDHTNetwork.members[26] 	#packetsInTheNetwork 	415
statistic SimphonyDHTNetwork.members[26] 	"packets statistics"
field count 444
field mean 208.23873873874
field stddev 120.08590504606
field sum 92458
field sqrsum 25641674
field min 0
field max 414
attr type  int
bin	-INF	0
bin	-49	0
bin	-48	0
bin	-47	0
bin	-46	0
bin	-45	0
bin	-44	0
bin	-43	0
bin	-42	0
bin	-41	0
bin	-40	0
bin	-39	0
bin	-38	0
bin	-37	0
bin	-36	0
bin	-35	0
bin	-34	0
bin	-33	0
bin	-32	0
bin	-31	0
bin	-30	0
bin	-29	0
bin	-28	0
bin	-27	0
bin	-26	0
bin	-25	0
bin	-24	0
bin	-23	0
bin	-22	0
bin	-21	0
bin	-20	0
bin	-19	0
bin	-18	0
bin	-17	0
bin	-16	0
bin	-15	0
bin	-14	0
bin	-13	0
bin	-12	0
bin	-11	0
bin	-10	0
bin	-9	0
bin	-8	0
bin	-7	0
bin	-6	0
bin	-5	0
bin	-4	0
bin	-3	0
bin	-2	0
bin	-1	0
bin	0	1
bin	1	1
bin	2	1
bin	3	1
bin	4	1
bin	5	2
bin	6	0
bin	7	0
bin	8	0
bin	9	0
bin	10	0
bin	11	0
bin	12	0
bin	13	8
bin	14	1
bin	15	1
bin	16	1
bin	17	1
bin	18	1
bin	19	1
bin	20	1
bin	21	1
bin	22	1
bin	23	1
bin	24	2
bin	25	0
bin	26	0
bin	27	0
bin	28	0
bin	29	0
bin	30	0
bin	31	0
bin	32	8
bin	33	1
bin	34	1
bin	35	1
bin	36	1
bin	37	1
bin	38	1
bin	39	1
bin	40	1
bin	41	2
bin	42	1
bin	43	1
bin	44	1
bin	45	1
bin	46	1
bin	47	1
bin	48	1
bin	49	1
bin	50	1
bin	51	1
bin	52	1
bin	53	1
bin	54	1
bin	55	1
bin	56	1
bin	57	1
bin	58	2
bin	59	2
bin	60	1
bin	61	1
bin	62	2
bin	63	0
bin	64	0
bin	65	0
bin	66	0
bin	67	0
bin	68	0
bin	69	0
bin	70	8
bin	71	1
bin	72	1
bin	73	1
bin	74	1
bin	75	1
bin	76	2
bin	77	0
bin	78	0
bin	79	0
bin	80	0
bin	81	0
bin	82	0
bin	83	0
bin	84	8
bin	85	1
bin	86	1
bin	87	1
bin	88	1
bin	89	1
bin	90	2
bin	91	0
bin	92	0
bin	93	0
bin	94	0
bin	95	0
bin	96	0
bin	97	0
bin	98	8
bin	99	1
bin	100	1
bin	101	1
bin	102	1
bin	103	1
bin	104	1
bin	105	2
bin	106	0
bin	107	0
bin	108	0
bin	109	0
bin	110	0
bin	111	0
bin	112	0
bin	113	8
bin	114	1
bin	115	1
bin	116	1
bin	117	1
bin	118	2
bin	119	0
bin	120	0
bin	121	0
bin	122	0
bin	123	0
bin	124	0
bin	125	0
bin	126	8
bin	127	1
bin	128	1
bin	129	1
bin	130	1
bin	131	2
bin	132	0
bin	133	0
bin	134	0
bin	135	0
bin	136	0
bin	137	0
bin	138	0
bin	139	8
bin	140	1
bin	141	1
bin	142	1
bin	143	1
bin	144	1
bin	145	1
bin	146	1
bin	147	286
scalar SimphonyDHTNetwork.members[27] 	#packetsInTheNetwork 	266
statistic SimphonyDHTNetwork.members[27] 	"packets statistics"
field count 283
field mean 133.91872791519
field stddev 76.909570431176
field sum 37899
field sqrsum 6743439
field min 0
field max 265
attr type  int
bin	-INF	0
bin	-47	0
bin	-46	0
bin	-45	0
bin	-44	0
bin	-43	0
bin	-42	0
bin	-41	0
bin	-40	0
bin	-39	0
bin	-38	0
bin	-37	0
bin	-36	0
bin	-35	0
bin	-34	0
bin	-33	0
bin	-32	0
bin	-31	0
bin	-30	0
bin	-29	0
bin	-28	0
bin	-27	0
bin	-26	0
bin	-25	0
bin	-24	0
bin	-23	0
bin	-22	0
bin	-21	0
bin	-20	0
bin	-19	0
bin	-18	0
bin	-17	0
bin	-16	0
bin	-15	0
bin	-14	0
bin	-13	0
bin	-12	0
bin	-11	0
bin	-10	0
bin	-9	0
bin	-8	0
bin	-7	0
bin	-6	0
bin	-5	0
bin	-4	0
bin	-3	0
bin	-2	0
bin	-1	0
bin	0	1
bin	1	1
bin	2	1
bin	3	1
bin	4	2
bin	5	0
bin	6	0
bin	7	0
bin	8	0
bin	9	0
bin	10	0
bin	11	0
bin	12	8
bin	13	1
bin	14	1
bin	15	1
bin	16	1
bin	17	1
bin	18	1
bin	19	1
bin	20	1
bin	21	1
bin	22	1
bin	23	1
bin	24	1
bin	25	1
bin	26	1
bin	27	1
bin	28	1
bin	29	1
bin	30	1
bin	31	1
bin	32	1
bin	33	1
bin	34	1
bin	35	1
bin	36	1
bin	37	1
bin	38	2
bin	39	0
bin	40	0
bin	41	0
bin	42	0
bin	43	0
bin	44	0
bin	45	0
bin	46	8
bin	47	1
bin	48	1
bin	49	1
bin	50	2
bin	51	0
bin	52	0
bin	53	0
bin	54	0
bin	55	0
bin	56	0
bin	57	0
bin	58	8
bin	59	1
bin	60	1
bin	61	1
bin	62	1
bin	63	2
bin	64	0
bin	65	0
bin	66	0
bin	67	0
bin	68	0
bin	69	0
bin	70	0
bin	71	8
bin	72	1
bin	73	1
bin	74	1
bin	75	1
bin	76	1
bin	77	1
bin	78	1
bin	79	1
bin	80	1
bin	81	2
bin	82	0
bin	83	0
bin	84	0
bin	85	0
bin	86	0
bin	87	0
bin	88	7
bin	89	1
bin	90	1
bin	91	1
bin	92	1
bin	93	1
bin	94	2
bin	95	1
bin	96	2
bin	97	2
bin	98	1
bin	99	1
bin	100	1
bin	101	1
bin	102	1
bin	103	1
bin	104	1
bin	105	1
bin	106	1
bin	107	1
bin	108	1
bin	109	1
bin	110	1
bin	111	1
bin	112	1
bin	113	1
bin	114	1
bin	115	1
bin	116	1
bin	117	1
bin	118	1
bin	119	1
bin	120	1
bin	121	1
bin	122	1
bin	123	1
bin	124	1
bin	125	1
bin	126	1
bin	127	1
bin	128	1
bin	129	1
bin	130	1
bin	131	1
bin	132	1
bin	133	1
bin	134	1
bin	135	1
bin	136	1
bin	137	1
bin	138	1
bin	139	1
bin	140	1
bin	141	134
scalar SimphonyDHTNetwork.members[28] 	#packetsInTheNetwork 	318
statistic SimphonyDHTNetwork.members[28] 	"packets statistics"
field count 342
field mean 161.45906432749
field stddev 92.16902309285
field sum 55219
field sqrsum 11812447
field min 0
field max 317
attr type  int
bin	-INF	0
bin	-47	0
bin	-46	0
bin	-45	0
bin	-44	0
bin	-43	0
bin	-42	0
bin	-41	0
bin	-40	0
bin	-39	0
bin	-38	0
bin	-37	0
bin	-36	0
bin	-35	0
bin	-34	0
bin	-33	0
bin	-32	0
bin	-31	0
bin	-30	0
bin	-29	0
bin	-28	0
bin	-27	0
bin	-26	0
bin	-25	0
bin	-24	0
bin	-23	0
bin	-22	0
bin	-21	0
bin	-20	0
bin	-19	0
bin	-18	0
bin	-17	0
bin	-16	0
bin	-15	0
bin	-14	0
bin	-13	0
bin	-12	0
bin	-11	0
bin	-10	0
bin	-9	0
bin	-8	0
bin	-7	0
bin	-6	0
bin	-5	0
bin	-4	0
bin	-3	0
bin	-2	0
bin	-1	0
bin	0	1
bin	1	1
bin	2	1
bin	3	2
bin	4	0
bin	5	0
bin	6	0
bin	7	0
bin	8	0
bin	9	0
bin	10	0
bin	11	8
bin	12	1
bin	13	1
bin	14	1
bin	15	1
bin	16	1
bin	17	1
bin	18	1
bin	19	1
bin	20	1
bin	21	1
bin	22	1
bin	23	2
bin	24	0
bin	25	0
bin	26	0
bin	27	0
bin	28	0
bin	29	0
bin	30	0
bin	31	8
bin	32	1
bin	33	1
bin	34	1
bin	35	1
bin	36	1
bin	37	2
bin	38	0
bin	39	0
bin	40	0
bin	41	0
bin	42	0
bin	43	0
bin	44	0
bin	45	8
bin	46	1
bin	47	1
bin	48	1
bin	49	1
bin	50	1
bin	51	1
bin	52	1
bin	53	1
bin	54	2
bin	55	0
bin	56	0
bin	57	0
bin	58	0
bin	59	0
bin	60	0
bin	61	0
bin	62	8
bin	63	1
bin	64	1
bin	65	1
bin	66	1
bin	67	1
bin	68	1
bin	69	2
bin	70	0
bin	71	0
bin	72	0
bin	73	0
bin	74	0
bin	75	0
bin	76	0
bin	77	8
bin	78	1
bin	79	1
bin	80	1
bin	81	1
bin	82	1
bin	83	1
bin	84	1
bin	85	1
bin	86	1
bin	87	1
bin	88	1
bin	89	1
bin	90	1
bin	91	1
bin	92	1
bin	93	1
bin	94	1
bin	95	1
bin	96	1
bin	97	1
bin	98	1
bin	99	1
bin	100	1
bin	101	1
bin	102	2
bin	103	0
bin	104	0
bin	105	0
bin	106	0
bin	107	0
bin	108	0
bin	109	7
bin	110	1
bin	111	1
bin	112	1
bin	113	1
bin	114	1
bin	115	1
bin	116	1
bin	117	1
bin	118	1
bin	119	1
bin	120	1
bin	121	1
bin	122	1
bin	123	1
bin	124	1
bin	125	1
bin	126	1
bin	127	1
bin	128	1
bin	129	1
bin	130	2
bin	131	0
bin	132	0
bin	133	0
bin	134	0
bin	135	0
bin	136	6
bin	137	1
bin	138	1
bin	139	1
bin	140	1
bin	141	194
scalar SimphonyDHTNetwork.members[29] 	#packetsInTheNetwork 	231
statistic SimphonyDHTNetwork.members[29] 	"packets statistics"
field count 249
field mean 116.57831325301
field stddev 66.828340608111
field sum 29028
field sqrsum 4491610
field min 0
field max 230
attr type  int
bin	-INF	0
bin	-46	0
bin	-45	0
bin	-44	0
bin	-43	0
bin	-42	0
bin	-41	0
bin	-40	0
bin	-39	0
bin	-38	0
bin	-37	0
bin	-36	0
bin	-35	0
bin	-34	0
bin	-33	0
bin	-32	0
bin	-31	0
bin	-30	0
bin	-29	0
bin	-28	0
bin	-27	0
bin	-26	0
bin	-25	0
bin	-24	0
bin	-23	0
bin	-22	0
bin	-21	0
bin	-20	0
bin	-19	0
bin	-18	0
bin	-17	0
bin	-16	0
bin	-15	0
bin	-14	0
bin	-13	0
bin	-12	0
bin	-11	0
bin	-10	0
bin	-9	0
bin	-8	0
bin	-7	0
bin	-6	0
bin	-5	0
bin	-4	0
bin	-3	0
bin	-2	0
bin	-1	0
bin	0	1
bin	1	1
bin	2	1
bin	3	2
bin	4	0
bin	5	0
bin	6	0
bin	7	0
bin	8	0
bin	9	0
bin	10	0
bin	11	8
bin	12	1
bin	13	1
bin	14	1
bin	15	1
bin	16	1
bin	17	1
bin	18	1
bin	19	1
bin	20	1
bin	21	1
bin	22	2
bin	23	0
bin	24	0
bin	25	0
bin	26	0
bin	27	0
bin	28	0
bin	29	0
bin	30	8
bin	31	1
bin	32	1
bin	33	1
bin	34	1
bin	35	1
bin	36	1
bin	37	1
bin	38	1
bin	39	1
bin	40	2
bin	41	2
bin	42	1
bin	43	1
bin	44	2
bin	45	0
bin	46	0
bin	47	0
bin	48	0
bin	49	0
bin	50	0
bin	51	0
bin	52	8
bin	53	1
bin	54	1
bin	55	1
bin	56	1
bin	57	1
bin	58	1
bin	59	1
bin	60	1
bin	61	1
bin	62	1
bin	63	1
bin	64	1
bin	65	1
bin	66	1
bin	67	1
bin	68	1
bin	69	1
bin	70	1
bin	71	1
bin	72	1
bin	73	1
bin	74	1
bin	75	1
bin	76	1
bin	77	1
bin	78	1
bin	79	2
bin	80	0
bin	81	0
bin	82	0
bin	83	0
bin	84	0
bin	85	0
bin	86	0
bin	87	8
bin	88	1
bin	89	1
bin	90	1
bin	91	1
bin	92	2
bin	93	0
bin	94	0
bin	95	0
bin	96	0
bin	97	0
bin	98	0
bin	99	0
bin	100	8
bin	101	1
bin	102	1
bin	103	1
bin	104	1
bin	105	1
bin	106	1
bin	107	2
bin	108	0
bin	109	0
bin	110	0
bin	111	0
bin	112	0
bin	113	0
bin	114	7
bin	115	1
bin	116	1
bin	117	1
bin	118	1
bin	119	1
bin	120	1
bin	121	1
bin	122	1
bin	123	1
bin	124	1
bin	125	1
bin	126	1
bin	127	1
bin	128	1
bin	129	1
bin	130	1
bin	131	1
bin	132	1
bin	133	1
bin	134	1
bin	135	1
bin	136	1
bin	137	1
bin	138	103
scalar SimphonyDHTNetwork.members[30] 	#packetsInTheNetwork 	277
statistic SimphonyDHTNetwork.members[30] 	"packets statistics"
field count 295
field mean 138.48813559322
field stddev 80.07415161409
field sum 40854
field sqrsum 7542884
field min 0
field max 276
attr type  int
bin	-INF	0
bin	-46	0
bin	-45	0
bin	-44	0
bin	-43	0
bin	-42	0
bin	-41	0
bin	-40	0
bin	-39	0
bin	-38	0
bin	-37	0
bin	-36	0
bin	-35	0
bin	-34	0
bin	-33	0
bin	-32	0
bin	-31	0
bin	-30	0
bin	-29	0
bin	-28	0
bin	-27	0
bin	-26	0
bin	-25	0
bin	-24	0
bin	-23	0
bin	-22	0
bin	-21	0
bin	-20	0
bin	-19	0
bin	-18	0
bin	-17	0
bin	-16	0
bin	-15	0
bin	-14	0
bin	-13	0
bin	-12	0
bin	-11	0
bin	-10	0
bin	-9	0
bin	-8	0
bin	-7	0
bin	-6	0
bin	-5	0
bin	-4	0
bin	-3	0
bin	-2	0
bin	-1	0
bin	0	1
bin	1	1
bin	2	1
bin	3	2
bin	4	0
bin	5	0
bin	6	0
bin	7	0
bin	8	0
bin	9	0
bin	10	0
bin	11	8
bin	12	1
bin	13	1
bin	14	1
bin	15	0
bin	16	2
bin	17	0
bin	18	0
bin	19	0
bin	20	0
bin	21	0
bin	22	0
bin	23	0
bin	24	8
bin	25	1
bin	26	2
bin	27	1
bin	28	1
bin	29	1
bin	30	1
bin	31	1
bin	32	1
bin	33	1
bin	34	1
bin	35	1
bin	36	1
bin	37	1
bin	38	1
bin	39	1
bin	40	2
bin	41	1
bin	42	2
bin	43	2
bin	44	1
bin	45	1
bin	46	1
bin	47	1
bin	48	1
bin	49	1
bin	50	1
bin	51	1
bin	52	2
bin	53	0
bin	54	0
bin	55	0
bin	56	0
bin	57	0
bin	58	0
bin	59	0
bin	60	8
bin	61	1
bin	62	1
bin	63	1
bin	64	1
bin	65	1
bin	66	1
bin	67	1
bin	68	1
bin	69	1
bin	70	1
bin	71	1
bin	72	1
bin	73	1
bin	74	1
bin	75	1
bin	76	0
bin	77	2
bin	78	0
bin	79	0
bin	80	0
bin	81	0
bin	82	0
bin	83	0
bin	84	0
bin	85	8
bin	86	1
bin	87	2
bin	88	1
bin	89	1
bin	90	1
bin	91	1
bin	92	1
bin	93	1
bin	94	1
bin	95	1
bin	96	2
bin	97	0
bin	98	0
bin	99	0
bin	100	0
bin	101	0
bin	102	0
bin	103	0
bin	104	8
bin	105	1
bin	106	1
bin	107	1
bin	108	1
bin	109	1
bin	110	1
bin	111	1
bin	112	1
bin	113	1
bin	114	2
bin	115	0
bin	116	0
bin	117	0
bin	118	0
bin	119	0
bin	120	0
bin	121	0
bin	122	8
bin	123	1
bin	124	1
bin	125	1
bin	126	2
bin	127	0
bin	128	0
bin	129	0
bin	130	0
bin	131	0
bin	132	0
bin	133	0
bin	134	8
bin	135	1
bin	136	1
bin	137	1
bin	138	147
scalar SimphonyDHTNetwork.members[31] 	#packetsInTheNetwork 	227
statistic SimphonyDHTNetwork.members[31] 	"packets statistics"
field count 236
field mean 113.64406779661
field stddev 66.132751782126
field sum 26820
field sqrsum 4075716
field min 1
field max 227
attr type  int
bin	-INF	0
bin	-46	0
bin	-45	0
bin	-44	0
bin	-43	0
bin	-42	0
bin	-41	0
bin	-40	0
bin	-39	0
bin	-38	0
bin	-37	0
bin	-36	0
bin	-35	0
bin	-34	0
bin	-33	0
bin	-32	0
bin	-31	0
bin	-30	0
bin	-29	0
bin	-28	0
bin	-27	0
bin	-26	0
bin	-25	0
bin	-24	0
bin	-23	0
bin	-22	0
bin	-21	0
bin	-20	0
bin	-19	0
bin	-18	0
bin	-17	0
bin	-16	0
bin	-15	0
bin	-14	0
bin	-13	0
bin	-12	0
bin	-11	0
bin	-10	0
bin	-9	0
bin	-8	0
bin	-7	0
bin	-6	0
bin	-5	0
bin	-4	0
bin	-3	0
bin	-2	0
bin	-1	0
bin	0	0
bin	1	2
bin	2	0
bin	3	0
bin	4	0
bin	5	0
bin	6	0
bin	7	0
bin	8	0
bin	9	8
bin	10	1
bin	11	2
bin	12	1
bin	13	2
bin	14	1
bin	15	1
bin	16	1
bin	17	1
bin	18	1
bin	19	1
bin	20	1
bin	21	1
bin	22	1
bin	23	1
bin	24	1
bin	25	1
bin	26	1
bin	27	1
bin	28	1
bin	29	1
bin	30	1
bin	31	1
bin	32	1
bin	33	1
bin	34	1
bin	35	1
bin	36	1
bin	37	1
bin	38	2
bin	39	0
bin	40	0
bin	41	0
bin	42	0
bin	43	0
bin	44	0
bin	45	0
bin	46	8
bin	47	1
bin	48	1
bin	49	1
bin	50	1
bin	51	1
bin	52	1
bin	53	2
bin	54	0
bin	55	0
bin	56	0
bin	57	0
bin	58	0
bin	59	0
bin	60	0
bin	61	8
bin	62	1
bin	63	1
bin	64	1
bin	65	1
bin	66	1
bin	67	1
bin	68	1
bin	69	1
bin	70	1
bin	71	1
bin	72	1
bin	73	1
bin	74	1
bin	75	1
bin	76	1
bin	77	1
bin	78	1
bin	79	1
bin	80	1
bin	81	1
bin	82	1
bin	83	1
bin	84	1
bin	85	1
bin	86	1
bin	87	1
bin	88	1
bin	89	1
bin	90	1
bin	91	1
bin	92	1
bin	93	1
bin	94	1
bin	95	1
bin	96	1
bin	97	1
bin	98	1
bin	99	1
bin	100	1
bin	101	1
bin	102	1
bin	103	1
bin	104	1
bin	105	1
bin	106	1
bin	107	1
bin	108	1
bin	109	1
bin	110	1
bin	111	1
bin	112	1
bin	113	1
bin	114	1
bin	115	1
bin	116	1
bin	117	1
bin	118	1
bin	119	0
bin	120	2
bin	121	0
bin	122	0
bin	123	0
bin	124	0
bin	125	0
bin	126	0
bin	127	7
bin	128	1
bin	129	2
bin	130	1
bin	131	1
bin	132	1
bin	133	1
bin	134	1
bin	135	1
bin	136	1
bin	137	1
bin	138	1
bin	139	1
bin	140	1
bin	141	1
bin	142	89
scalar SimphonyDHTNetwork.members[32] 	#packetsInTheNetwork 	359
statistic SimphonyDHTNetwork.members[32] 	"packets statistics"
field count 378
field mean 180.30423280423
field stddev 104.18156479711
field sum 68155
field sqrsum 16380517
field min 0
field max 358
attr type  int
bin	-INF	0
bin	-47	0
bin	-46	0
bin	-45	0
bin	-44	0
bin	-43	0
bin	-42	0
bin	-41	0
bin	-40	0
bin	-39	0
bin	-38	0
bin	-37	0
bin	-36	0
bin	-35	0
bin	-34	0
bin	-33	0
bin	-32	0
bin	-31	0
bin	-30	0
bin	-29	0
bin	-28	0
bin	-27	0
bin	-26	0
bin	-25	0
bin	-24	0
bin	-23	0
bin	-22	0
bin	-21	0
bin	-20	0
bin	-19	0
bin	-18	0
bin	-17	0
bin	-16	0
bin	-15	0
bin	-14	0
bin	-13	0
bin	-12	0
bin	-11	0
bin	-10	0
bin	-9	0
bin	-8	0
bin	-7	0
bin	-6	0
bin	-5	0
bin	-4	0
bin	-3	0
bin	-2	0
bin	-1	0
bin	0	1
bin	1	1
bin	2	1
bin	3	1
bin	4	1
bin	5	2
bin	6	0
bin	7	0
bin	8	0
bin	9	0
bin	10	0
bin	11	0
bin	12	0
bin	13	8
bin	14	1
bin	15	1
bin	16	1
bin	17	1
bin	18	2
bin	19	0
bin	20	0
bin	21	0
bin	22	0
bin	23	0
bin	24	0
bin	25	0
bin	26	8
bin	27	1
bin	28	1
bin	29	1
bin	30	1
bin	31	2
bin	32	0
bin	33	0
bin	34	0
bin	35	0
bin	36	0
bin	37	0
bin	38	0
bin	39	8
bin	40	1
bin	41	1
bin	42	1
bin	43	1
bin	44	1
bin	45	1
bin	46	1
bin	47	1
bin	48	1
bin	49	1
bin	50	1
bin	51	1
bin	52	2
bin	53	0
bin	54	0
bin	55	0
bin	56	0
bin	57	0
bin	58	0
bin	59	0
bin	60	8
bin	61	1
bin	62	1
bin	63	1
bin	64	1
bin	65	2
bin	66	0
bin	67	0
bin	68	0
bin	69	0
bin	70	0
bin	71	0
bin	72	0
bin	73	8
bin	74	1
bin	75	1
bin	76	1
bin	77	1
bin	78	2
bin	79	0
bin	80	0
bin	81	0
bin	82	0
bin	83	0
bin	84	0
bin	85	0
bin	86	8
bin	87	1
bin	88	1
bin	89	1
bin	90	1
bin	91	1
bin	92	1
bin	93	2
bin	94	0
bin	95	0
bin	96	0
bin	97	0
bin	98	0
bin	99	0
bin	100	0
bin	101	8
bin	102	1
bin	103	1
bin	104	1
bin	105	1
bin	106	1
bin	107	1
bin	108	1
bin	109	1
bin	110	1
bin	111	1
bin	112	1
bin	113	1
bin	114	1
bin	115	1
bin	116	1
bin	117	2
bin	118	0
bin	119	0
bin	120	0
bin	121	0
bin	122	0
bin	123	0
bin	124	0
bin	125	8
bin	126	1
bin	127	1
bin	128	1
bin	129	1
bin	130	1
bin	131	1
bin	132	1
bin	133	1
bin	134	1
bin	135	1
bin	136	1
bin	137	1
bin	138	1
bin	139	1
bin	140	230
scalar SimphonyDHTNetwork.members[33] 	#packetsInTheNetwork 	308
statistic SimphonyDHTNetwork.members[33] 	"packets statistics"
field count 329
field mean 154.65349544073
field stddev 88.89330577968
field sum 50881
field sqrsum 10460787
field min 0
field max 307
attr type  int
bin	-INF	0
bin	-47	0
bin	-46	0
bin	-45	0
bin	-44	0
bin	-43	0
bin	-42	0
bin	-41	0
bin	-40	0
bin	-39	0
bin	-38	0
bin	-37	0
bin	-36	0
bin	-35	0
bin	-34	0
bin	-33	0
bin	-32	0
bin	-31	0
bin	-30	0
bin	-29	0
bin	-28	0
bin	-27	0
bin	-26	0
bin	-25	0
bin	-24	0
bin	-23	0
bin	-22	0
bin	-21	0
bin	-20	0
bin	-19	0
bin	-18	0
bin	-17	0
bin	-16	0
bin	-15	0
bin	-14	0
bin	-13	0
bin	-12	0
bin	-11	0
bin	-10	0
bin	-9	0
bin	-8	0
bin	-7	0
bin	-6	0
bin	-5	0
bin	-4	0
bin	-3	0
bin	-2	0
bin	-1	0
bin	0	1
bin	1	1
bin	2	1
bin	3	1
bin	4	1
bin	5	1
bin	6	1
bin	7	1
bin	8	1
bin	9	1
bin	10	1
bin	11	1
bin	12	2
bin	13	0
bin	14	0
bin	15	0
bin	16	0
bin	17	0
bin	18	0
bin	19	0
bin	20	8
bin	21	1
bin	22	1
bin	23	1
bin	24	1
bin	25	2
bin	26	0
bin	27	0
bin	28	0
bin	29	0
bin	30	0
bin	31	0
bin	32	0
bin	33	8
bin	34	1
bin	35	1
bin	36	1
bin	37	1
bin	38	2
bin	39	1
bin	40	1
bin	41	1
bin	42	1
bin	43	1
bin	44	1
bin	45	1
bin	46	1
bin	47	1
bin	48	1
bin	49	1
bin	50	1
bin	51	1
bin	52	1
bin	53	1
bin	54	2
bin	55	0
bin	56	0
bin	57	0
bin	58	0
bin	59	0
bin	60	0
bin	61	0
bin	62	8
bin	63	1
bin	64	1
bin	65	1
bin	66	1
bin	67	1
bin	68	1
bin	69	1
bin	70	1
bin	71	1
bin	72	1
bin	73	1
bin	74	1
bin	75	1
bin	76	1
bin	77	1
bin	78	1
bin	79	1
bin	80	1
bin	81	1
bin	82	2
bin	83	0
bin	84	0
bin	85	0
bin	86	0
bin	87	0
bin	88	0
bin	89	0
bin	90	8
bin	91	1
bin	92	1
bin	93	1
bin	94	1
bin	95	2
bin	96	2
bin	97	1
bin	98	1
bin	99	2
bin	100	0
bin	101	0
bin	102	0
bin	103	0
bin	104	0
bin	105	0
bin	106	0
bin	107	8
bin	108	1
bin	109	1
bin	110	1
bin	111	1
bin	112	1
bin	113	2
bin	114	0
bin	115	0
bin	116	0
bin	117	0
bin	118	0
bin	119	0
bin	120	0
bin	121	8
bin	122	1
bin	123	1
bin	124	1
bin	125	1
bin	126	1
bin	127	2
bin	128	0
bin	129	0
bin	130	0
bin	131	0
bin	132	0
bin	133	0
bin	134	0
bin	135	8
bin	136	1
bin	137	1
bin	138	1
bin	139	1
bin	140	1
bin	141	178
scalar SimphonyDHTNetwork.members[34] 	#packetsInTheNetwork 	285
statistic SimphonyDHTNetwork.members[34] 	"packets statistics"
field count 300
field mean 143.03666666667
field stddev 82.320659367812
field sum 42911
field sqrsum 8164077
field min 0
field max 284
attr type  int
bin	-INF	0
bin	-47	0
bin	-46	0
bin	-45	0
bin	-44	0
bin	-43	0
bin	-42	0
bin	-41	0
bin	-40	0
bin	-39	0
bin	-38	0
bin	-37	0
bin	-36	0
bin	-35	0
bin	-34	0
bin	-33	0
bin	-32	0
bin	-31	0
bin	-30	0
bin	-29	0
bin	-28	0
bin	-27	0
bin	-26	0
bin	-25	0
bin	-24	0
bin	-23	0
bin	-22	0
bin	-21	0
bin	-20	0
bin	-19	0
bin	-18	0
bin	-17	0
bin	-16	0
bin	-15	0
bin	-14	0
bin	-13	0
bin	-12	0
bin	-11	0
bin	-10	0
bin	-9	0
bin	-8	0
bin	-7	0
bin	-6	0
bin	-5	0
bin	-4	0
bin	-3	0
bin	-2	0
bin	-1	0
bin	0	1
bin	1	1
bin	2	1
bin	3	1
bin	4	1
bin	5	1
bin	6	1
bin	7	1
bin	8	1
bin	9	1
bin	10	1
bin	11	1
bin	12	1
bin	13	1
bin	14	1
bin	15	1
bin	16	1
bin	17	1
bin	18	1
bin	19	1
bin	20	1
bin	21	1
bin	22	1
bin	23	1
bin	24	1
bin	25	1
bin	26	1
bin	27	1
bin	28	1
bin	29	1
bin	30	2
bin	31	0
bin	32	0
bin	33	0
bin	34	0
bin	35	0
bin	36	0
bin	37	0
bin	38	8
bin	39	1
bin	40	1
bin	41	1
bin	42	1
bin	43	2
bin	44	0
bin	45	0
bin	46	0
bin	47	0
bin	48	0
bin	49	0
bin	50	0
bin	51	8
bin	52	1
bin	53	1
bin	54	1
bin	55	1
bin	56	1
bin	57	1
bin	58	1
bin	59	1
bin	60	1
bin	61	1
bin	62	1
bin	63	1
bin	64	1
bin	65	1
bin	66	2
bin	67	1
bin	68	2
bin	69	2
bin	70	1
bin	71	1
bin	72	1
bin	73	1
bin	74	1
bin	75	1
bin	76	1
bin	77	1
bin	78	1
bin	79	1
bin	80	1
bin	81	1
bin	82	1
bin	83	1
bin	84	1
bin	85	1
bin	86	2
bin	87	0
bin	88	0
bin	89	0
bin	90	0
bin	91	0
bin	92	0
bin	93	0
bin	94	8
bin	95	1
bin	96	1
bin	97	1
bin	98	1
bin	99	1
bin	100	1
bin	101	1
bin	102	1
bin	103	1
bin	104	1
bin	105	1
bin	106	1
bin	107	1
bin	108	1
bin	109	1
bin	110	1
bin	111	1
bin	112	1
bin	113	1
bin	114	1
bin	115	1
bin	116	1
bin	117	1
bin	118	1
bin	119	1
bin	120	1
bin	121	1
bin	122	1
bin	123	1
bin	124	1
bin	125	1
bin	126	1
bin	127	1
bin	128	1
bin	129	1
bin	130	1
bin	131	1
bin	132	2
bin	133	0
bin	134	0
bin	135	0
bin	136	0
bin	137	0
bin	138	0
bin	139	0
bin	140	8
bin	141	152
scalar SimphonyDHTNetwork.members[35] 	#packetsInTheNetwork 	228
statistic SimphonyDHTNetwork.members[35] 	"packets statistics"
field count 237
field mean 114.55274261603
field stddev 66.031277601478
field sum 27149
field sqrsum 4138983
field min 1
field max 227
attr type  int
bin	-INF	0
bin	-46	0
bin	-45	0
bin	-44	0
bin	-43	0
bin	-42	0
bin	-41	0
bin	-40	0
bin	-39	0
bin	-38	0
bin	-37	0
bin	-36	0
bin	-35	0
bin	-34	0
bin	-33	0
bin	-32	0
bin	-31	0
bin	-30	0
bin	-29	0
bin	-28	0
bin	-27	0
bin	-26	0
bin	-25	0
bin	-24	0
bin	-23	0
bin	-22	0
bin	-21	0
bin	-20	0
bin	-19	0
bin	-18	0
bin	-17	0
bin	-16	0
bin	-15	0
bin	-14	0
bin	-13	0
bin	-12	0
bin	-11	0
bin	-10	0
bin	-9	0
bin	-8	0
bin	-7	0
bin	-6	0
bin	-5	0
bin	-4	0
bin	-3	0
bin	-2	0
bin	-1	0
bin	0	0
bin	1	2
bin	2	0
bin	3	0
bin	4	0
bin	5	0
bin	6	0
bin	7	0
bin	8	0
bin	9	8
bin	10	1
bin	11	2
bin	12	1
bin	13	1
bin	14	1
bin	15	1
bin	16	1
bin	17	1
bin	18	1
bin	19	1
bin	20	1
bin	21	1
bin	22	1
bin	23	1
bin	24	1
bin	25	1
bin	26	1
bin	27	1
bin	28	1
bin	29	1
bin	30	1
bin	31	1
bin	32	1
bin	33	1
bin	34	1
bin	35	1
bin	36	1
bin	37	1
bin	38	1
bin	39	1
bin	40	1
bin	41	1
bin	42	1
bin	43	1
bin	44	1
bin	45	1
bin	46	1
bin	47	1
bin	48	1
bin	49	1
bin	50	1
bin	51	2
bin	52	0
bin	53	0
bin	54	0
bin	55	0
bin	56	0
bin	57	0
bin	58	0
bin	59	8
bin	60	1
bin	61	1
bin	62	1
bin	63	1
bin	64	1
bin	65	1
bin	66	1
bin	67	1
bin	68	2
bin	69	0
bin	70	0
bin	71	0
bin	72	0
bin	73	0
bin	74	0
bin	75	0
bin	76	8
bin	77	1
bin	78	1
bin	79	1
bin	80	1
bin	81	1
bin	82	1
bin	83	1
bin	84	1
bin	85	2
bin	86	0
bin	87	0
bin	88	0
bin	89	0
bin	90	0
bin	91	0
bin	92	0
bin	93	8
bin	94	1
bin	95	1
bin	96	1
bin	97	1
bin	98	1
bin	99	1
bin	100	1
bin	101	1
bin	102	1
bin	103	1
bin	104	1
bin	105	1
bin	106	1
bin	107	1
bin	108	1
bin	109	1
bin	110	1
bin	111	2
bin	112	1
bin	113	1
bin	114	1
bin	115	1
bin	116	1
bin	117	1
bin	118	1
bin	119	1
bin	120	1
bin	121	1
bin	122	1
bin	123	1
bin	124	1
bin	125	1
bin	126	1
bin	127	1
bin	128	1
bin	129	1
bin	130	1
bin	131	1
bin	132	1
bin	133	1
bin	134	1
bin	135	1
bin	136	1
bin	137	1
bin	138	1
bin	139	1
bin	140	2
bin	141	0
bin	142	90
scalar SimphonyDHTNetwork.members[36] 	#packetsInTheNetwork 	417
statistic SimphonyDHTNetwork.members[36] 	"packets statistics"
field count 444
field mean 209.20045045045
field stddev 120.95760837842
field sum 92885
field sqrsum 25913003
field min 0
field max 416
attr type  int
bin	-INF	0
bin	-46	0
bin	-45	0
bin	-44	0
bin	-43	0
bin	-42	0
bin	-41	0
bin	-40	0
bin	-39	0
bin	-38	0
bin	-37	0
bin	-36	0
bin	-35	0
bin	-34	0
bin	-33	0
bin	-32	0
bin	-31	0
bin	-30	0
bin	-29	0
bin	-28	0
bin	-27	0
bin	-26	0
bin	-25	0
bin	-24	0
bin	-23	0
bin	-22	0
bin	-21	0
bin	-20	0
bin	-19	0
bin	-18	0
bin	-17	0
bin	-16	0
bin	-15	0
bin	-14	0
bin	-13	0
bin	-12	0
bin	-11	0
bin	-10	0
bin	-9	0
bin	-8	0
bin	-7	0
bin	-6	0
bin	-5	0
bin	-4	0
bin	-3	0
bin	-2	0
bin	-1	0
bin	0	1
bin	1	1
bin	2	1
bin	3	1
bin	4	1
bin	5	0
bin	6	2
bin	7	0
bin	8	0
bin	9	0
bin	10	0
bin	11	0
bin	12	0
bin	13	0
bin	14	8
bin	15	1
bin	16	2
bin	17	1
bin	18	1
bin	19	1
bin	20	1
bin	21	2
bin	22	1
bin	23	1
bin	24	1
bin	25	1
bin	26	1
bin	27	1
bin	28	1
bin	29	1
bin	30	1
bin	31	1
bin	32	1
bin	33	1
bin	34	1
bin	35	1
bin	36	1
bin	37	1
bin	38	1
bin	39	1
bin	40	1
bin	41	1
bin	42	1
bin	43	1
bin	44	1
bin	45	1
bin	46	1
bin	47	1
bin	48	1
bin	49	1
bin	50	1
bin	51	2
bin	52	2
bin	53	1
bin	54	1
bin	55	2
bin	56	0
bin	57	0
bin	58	0
bin	59	0
bin	60	0
bin	61	0
bin	62	0
bin	63	8
bin	64	1
bin	65	1
bin	66	1
bin	67	1
bin	68	1
bin	69	2
bin	70	0
bin	71	0
bin	72	0
bin	73	0
bin	74	0
bin	75	0
bin	76	0
bin	77	8
bin	78	1
bin	79	1
bin	80	1
bin	81	1
bin	82	1
bin	83	2
bin	84	0
bin	85	0
bin	86	0
bin	87	0
bin	88	0
bin	89	0
bin	90	0
bin	91	8
bin	92	1
bin	93	1
bin	94	1
bin	95	1
bin	96	1
bin	97	2
bin	98	0
bin	99	0
bin	100	0
bin	101	0
bin	102	0
bin	103	0
bin	104	0
bin	105	8
bin	106	1
bin	107	1
bin	108	0
bin	109	2
bin	110	0
bin	111	0
bin	112	0
bin	113	0
bin	114	0
bin	115	0
bin	116	0
bin	117	8
bin	118	1
bin	119	2
bin	120	1
bin	121	1
bin	122	1
bin	123	1
bin	124	1
bin	125	1
bin	126	1
bin	127	1
bin	128	1
bin	129	1
bin	130	1
bin	131	1
bin	132	1
bin	133	1
bin	134	1
bin	135	2
bin	136	0
bin	137	0
bin	138	298
scalar SimphonyDHTNetwork.members[37] 	#packetsInTheNetwork 	339
statistic SimphonyDHTNetwork.members[37] 	"packets statistics"
field count 376
field mean 169.84042553191
field stddev 95.845520507838
field sum 63860
field sqrsum 14290896
field min 0
field max 338
attr type  int
bin	-INF	0
bin	-47	0
bin	-46	0
bin	-45	0
bin	-44	0
bin	-43	0
bin	-42	0
bin	-41	0
bin	-40	0
bin	-39	0
bin	-38	0
bin	-37	0
bin	-36	0
bin	-35	0
bin	-34	0
bin	-33	0
bin	-32	0
bin	-31	0
bin	-30	0
bin	-29	0
bin	-28	0
bin	-27	0
bin	-26	0
bin	-25	0
bin	-24	0
bin	-23	0
bin	-22	0
bin	-21	0
bin	-20	0
bin	-19	0
bin	-18	0
bin	-17	0
bin	-16	0
bin	-15	0
bin	-14	0
bin	-13	0
bin	-12	0
bin	-11	0
bin	-10	0
bin	-9	0
bin	-8	0
bin	-7	0
bin	-6	0
bin	-5	0
bin	-4	0
bin	-3	0
bin	-2	0
bin	-1	0
bin	0	1
bin	1	1
bin	2	1
bin	3	1
bin	4	1
bin	5	1
bin	6	1
bin	7	1
bin	8	1
bin	9	1
bin	10	1
bin	11	1
bin	12	1
bin	13	1
bin	14	1
bin	15	1
bin	16	1
bin	17	1
bin	18	2
bin	19	0
bin	20	0
bin	21	0
bin	22	0
bin	23	0
bin	24	0
bin	25	0
bin	26	8
bin	27	1
bin	28	1
bin	29	1
bin	30	1
bin	31	1
bin	32	1
bin	33	1
bin	34	2
bin	35	0
bin	36	0
bin	37	0
bin	38	0
bin	39	0
bin	40	0
bin	41	0
bin	42	8
bin	43	1
bin	44	1
bin	45	1
bin	46	1
bin	47	2
bin	48	0
bin	49	0
bin	50	0
bin	51	0
bin	52	0
bin	53	0
bin	54	0
bin	55	8
bin	56	1
bin	57	1
bin	58	1
bin	59	1
bin	60	2
bin	61	0
bin	62	0
bin	63	0
bin	64	0
bin	65	0
bin	66	0
bin	67	0
bin	68	8
bin	69	1
bin	70	1
bin	71	1
bin	72	1
bin	73	1
bin	74	1
bin	75	1
bin	76	1
bin	77	1
bin	78	2
bin	79	0
bin	80	0
bin	81	0
bin	82	0
bin	83	0
bin	84	0
bin	85	0
bin	86	8
bin	87	1
bin	88	1
bin	89	1
bin	90	1
bin	91	1
bin	92	1
bin	93	1
bin	94	1
bin	95	1
bin	96	1
bin	97	1
bin	98	2
bin	99	1
bin	100	1
bin	101	1
bin	102	2
bin	103	1
bin	104	2
bin	105	2
bin	106	1
bin	107	1
bin	108	1
bin	109	1
bin	110	1
bin	111	2
bin	112	0
bin	113	0
bin	114	0
bin	115	0
bin	116	0
bin	117	0
bin	118	0
bin	119	8
bin	120	1
bin	121	1
bin	122	1
bin	123	1
bin	124	1
bin	125	2
bin	126	1
bin	127	2
bin	128	1
bin	129	2
bin	130	0
bin	131	1
bin	132	2
bin	133	1
bin	134	1
bin	135	2
bin	136	0
bin	137	0
bin	138	3
bin	139	1
bin	140	1
bin	141	221
scalar SimphonyDHTNetwork.members[38] 	#packetsInTheNetwork 	394
statistic SimphonyDHTNetwork.members[38] 	"packets statistics"
field count 430
field mean 199.1488372093
field stddev 113.20530758454
field sum 85634
field sqrsum 22551736
field min 0
field max 393
attr type  int
bin	-INF	0
bin	-46	0
bin	-45	0
bin	-44	0
bin	-43	0
bin	-42	0
bin	-41	0
bin	-40	0
bin	-39	0
bin	-38	0
bin	-37	0
bin	-36	0
bin	-35	0
bin	-34	0
bin	-33	0
bin	-32	0
bin	-31	0
bin	-30	0
bin	-29	0
bin	-28	0
bin	-27	0
bin	-26	0
bin	-25	0
bin	-24	0
bin	-23	0
bin	-22	0
bin	-21	0
bin	-20	0
bin	-19	0
bin	-18	0
bin	-17	0
bin	-16	0
bin	-15	0
bin	-14	0
bin	-13	0
bin	-12	0
bin	-11	0
bin	-10	0
bin	-9	0
bin	-8	0
bin	-7	0
bin	-6	0
bin	-5	0
bin	-4	0
bin	-3	0
bin	-2	0
bin	-1	0
bin	0	1
bin	1	1
bin	2	1
bin	3	1
bin	4	1
bin	5	1
bin	6	1
bin	7	1
bin	8	1
bin	9	2
bin	10	0
bin	11	0
bin	12	0
bin	13	0
bin	14	0
bin	15	0
bin	16	0
bin	17	8
bin	18	1
bin	19	1
bin	20	1
bin	21	1
bin	22	2
bin	23	0
bin	24	0
bin	25	0
bin	26	0
bin	27	0
bin	28	0
bin	29	0
bin	30	8
bin	31	1
bin	32	1
bin	33	1
bin	34	1
bin	35	1
bin	36	2
bin	37	0
bin	38	0
bin	39	0
bin	40	0
bin	41	0
bin	42	0
bin	43	0
bin	44	8
bin	45	1
bin	46	1
bin	47	1
bin	48	1
bin	49	1
bin	50	1
bin	51	2
bin	52	0
bin	53	0
bin	54	0
bin	55	0
bin	56	0
bin	57	0
bin	58	0
bin	59	8
bin	60	1
bin	61	1
bin	62	1
bin	63	1
bin	64	1
bin	65	2
bin	66	2
bin	67	1
bin	68	1
bin	69	2
bin	70	0
bin	71	0
bin	72	0
bin	73	0
bin	74	0
bin	75	0
bin	76	0
bin	77	8
bin	78	1
bin	79	1
bin	80	1
bin	81	1
bin	82	1
bin	83	1
bin	84	1
bin	85	1
bin	86	1
bin	87	1
bin	88	1
bin	89	1
bin	90	1
bin	91	1
bin	92	1
bin	93	1
bin	94	1
bin	95	1
bin	96	1
bin	97	1
bin	98	1
bin	99	1
bin	100	1
bin	101	1
bin	102	1
bin	103	1
bin	104	1
bin	105	1
bin	106	1
bin	107	1
bin	108	2
bin	109	0
bin	110	0
bin	111	0
bin	112	0
[...]
bin	107	0
bin	108	0
bin	109	0
bin	110	0
bin	111	0
bin	112	0
bin	113	0
bin	114	0
bin	115	0
bin	116	0
bin	117	0
bin	118	0
bin	119	0
bin	120	0
bin	121	0
bin	122	0
bin	123	0
bin	124	0
bin	125	0
scalar SimphonyDHTNetwork.members[111] 	#packetsInTheNetwork 	29
statistic SimphonyDHTNetwork.members[111] 	"packets statistics"
field count 32
field mean 15.15625
field stddev 7.951909387262
field sum 485
field sqrsum 9311
field min 0
field max 28
attr type  int
bin	-INF	0
bin	-14	0
bin	-13	0
bin	-12	0
bin	-11	0
bin	-10	0
bin	-9	0
bin	-8	0
bin	-7	0
bin	-6	0
bin	-5	0
bin	-4	0
bin	-3	0
bin	-2	0
bin	-1	0
bin	0	1
bin	1	0
bin	2	0
bin	3	1
bin	4	3
bin	5	0
bin	6	0
bin	7	2
bin	8	0
bin	9	2
bin	10	1
bin	11	1
bin	12	2
bin	13	0
bin	14	2
bin	15	1
bin	16	1
bin	17	2
bin	18	0
bin	19	2
bin	20	1
bin	21	2
bin	22	1
bin	23	1
bin	24	2
bin	25	0
bin	26	2
bin	27	1
bin	28	1
bin	29	0
bin	30	0
bin	31	0
bin	32	0
bin	33	0
bin	34	0
bin	35	0
bin	36	0
bin	37	0
bin	38	0
bin	39	0
bin	40	0
bin	41	0
bin	42	0
scalar SimphonyDHTNetwork.members[112] 	#packetsInTheNetwork 	99
statistic SimphonyDHTNetwork.members[112] 	"packets statistics"
field count 110
field mean 50.009090909091
field stddev 27.834206219384
field sum 5501
field sqrsum 359547
field min 0
field max 98
attr type  int
bin	-INF	0
bin	-45	0
bin	-44	0
bin	-43	0
bin	-42	0
bin	-41	0
bin	-40	0
bin	-39	0
bin	-38	0
bin	-37	0
bin	-36	0
bin	-35	0
bin	-34	0
bin	-33	0
bin	-32	0
bin	-31	0
bin	-30	0
bin	-29	0
bin	-28	0
bin	-27	0
bin	-26	0
bin	-25	0
bin	-24	0
bin	-23	0
bin	-22	0
bin	-21	0
bin	-20	0
bin	-19	0
bin	-18	0
bin	-17	0
bin	-16	0
bin	-15	0
bin	-14	0
bin	-13	0
bin	-12	0
bin	-11	0
bin	-10	0
bin	-9	0
bin	-8	0
bin	-7	0
bin	-6	0
bin	-5	0
bin	-4	0
bin	-3	0
bin	-2	0
bin	-1	0
bin	0	1
bin	1	0
bin	2	0
bin	3	1
bin	4	3
bin	5	0
bin	6	0
bin	7	1
bin	8	2
bin	9	0
bin	10	1
bin	11	2
bin	12	1
bin	13	2
bin	14	0
bin	15	1
bin	16	2
bin	17	1
bin	18	1
bin	19	2
bin	20	0
bin	21	0
bin	22	3
bin	23	1
bin	24	1
bin	25	1
bin	26	1
bin	27	1
bin	28	2
bin	29	0
bin	30	0
bin	31	3
bin	32	1
bin	33	1
bin	34	1
bin	35	1
bin	36	1
bin	37	2
bin	38	0
bin	39	0
bin	40	3
bin	41	1
bin	42	1
bin	43	1
bin	44	2
bin	45	0
bin	46	0
bin	47	0
bin	48	4
bin	49	1
bin	50	2
bin	51	1
bin	52	1
bin	53	1
bin	54	1
bin	55	2
bin	56	0
bin	57	0
bin	58	0
bin	59	4
bin	60	1
bin	61	1
bin	62	1
bin	63	1
bin	64	1
bin	65	1
bin	66	2
bin	67	1
bin	68	2
bin	69	2
bin	70	1
bin	71	1
bin	72	1
bin	73	1
bin	74	1
bin	75	1
bin	76	2
bin	77	0
bin	78	0
bin	79	0
bin	80	4
bin	81	1
bin	82	1
bin	83	1
bin	84	1
bin	85	1
bin	86	2
bin	87	0
bin	88	0
bin	89	0
bin	90	4
bin	91	1
bin	92	1
bin	93	1
bin	94	1
bin	95	1
bin	96	1
bin	97	1
bin	98	1
bin	99	0
bin	100	0
bin	101	0
bin	102	0
bin	103	0
bin	104	0
bin	105	0
bin	106	0
bin	107	0
bin	108	0
bin	109	0
bin	110	0
bin	111	0
bin	112	0
bin	113	0
bin	114	0
bin	115	0
bin	116	0
bin	117	0
bin	118	0
bin	119	0
bin	120	0
bin	121	0
bin	122	0
bin	123	0
bin	124	0
bin	125	0
bin	126	0
bin	127	0
bin	128	0
bin	129	0
bin	130	0
bin	131	0
bin	132	0
bin	133	0
bin	134	0
bin	135	0
scalar SimphonyDHTNetwork.members[113] 	#packetsInTheNetwork 	76
statistic SimphonyDHTNetwork.members[113] 	"packets statistics"
field count 85
field mean 38.152941176471
field stddev 21.263934301083
field sum 3243
field sqrsum 161711
field min 0
field max 75
attr type  int
bin	-INF	0
bin	-38	0
bin	-37	0
bin	-36	0
bin	-35	0
bin	-34	0
bin	-33	0
bin	-32	0
bin	-31	0
bin	-30	0
bin	-29	0
bin	-28	0
bin	-27	0
bin	-26	0
bin	-25	0
bin	-24	0
bin	-23	0
bin	-22	0
bin	-21	0
bin	-20	0
bin	-19	0
bin	-18	0
bin	-17	0
bin	-16	0
bin	-15	0
bin	-14	0
bin	-13	0
bin	-12	0
bin	-11	0
bin	-10	0
bin	-9	0
bin	-8	0
bin	-7	0
bin	-6	0
bin	-5	0
bin	-4	0
bin	-3	0
bin	-2	0
bin	-1	0
bin	0	1
bin	1	0
bin	2	0
bin	3	1
bin	4	3
bin	5	0
bin	6	0
bin	7	2
bin	8	0
bin	9	1
bin	10	2
bin	11	1
bin	12	1
bin	13	2
bin	14	0
bin	15	2
bin	16	1
bin	17	1
bin	18	2
bin	19	0
bin	20	2
bin	21	1
bin	22	1
bin	23	2
bin	24	1
bin	25	1
bin	26	1
bin	27	2
bin	28	0
bin	29	2
bin	30	1
bin	31	1
bin	32	1
bin	33	1
bin	34	1
bin	35	1
bin	36	1
bin	37	1
bin	38	1
bin	39	2
bin	40	2
bin	41	1
bin	42	1
bin	43	1
bin	44	2
bin	45	0
bin	46	1
bin	47	2
bin	48	1
bin	49	2
bin	50	0
bin	51	1
bin	52	2
bin	53	1
bin	54	1
bin	55	1
bin	56	1
bin	57	1
bin	58	1
bin	59	1
bin	60	2
bin	61	0
bin	62	2
bin	63	1
bin	64	1
bin	65	1
bin	66	1
bin	67	1
bin	68	2
bin	69	1
bin	70	0
bin	71	2
bin	72	1
bin	73	1
bin	74	1
bin	75	1
bin	76	0
bin	77	0
bin	78	0
bin	79	0
bin	80	0
bin	81	0
bin	82	0
bin	83	0
bin	84	0
bin	85	0
bin	86	0
bin	87	0
bin	88	0
bin	89	0
bin	90	0
bin	91	0
bin	92	0
bin	93	0
bin	94	0
bin	95	0
bin	96	0
bin	97	0
bin	98	0
bin	99	0
bin	100	0
bin	101	0
bin	102	0
bin	103	0
bin	104	0
bin	105	0
bin	106	0
bin	107	0
bin	108	0
bin	109	0
bin	110	0
bin	111	0
bin	112	0
bin	113	0
scalar SimphonyDHTNetwork.members[114] 	#packetsInTheNetwork 	64
statistic SimphonyDHTNetwork.members[114] 	"packets statistics"
field count 71
field mean 32.338028169014
field stddev 18.057798997324
field sum 2296
field sqrsum 97074
field min 0
field max 63
attr type  int
bin	-INF	0
bin	-32	0
bin	-31	0
bin	-30	0
bin	-29	0
bin	-28	0
bin	-27	0
bin	-26	0
bin	-25	0
bin	-24	0
bin	-23	0
bin	-22	0
bin	-21	0
bin	-20	0
bin	-19	0
bin	-18	0
bin	-17	0
bin	-16	0
bin	-15	0
bin	-14	0
bin	-13	0
bin	-12	0
bin	-11	0
bin	-10	0
bin	-9	0
bin	-8	0
bin	-7	0
bin	-6	0
bin	-5	0
bin	-4	0
bin	-3	0
bin	-2	0
bin	-1	0
bin	0	1
bin	1	0
bin	2	0
bin	3	1
bin	4	3
bin	5	0
bin	6	0
bin	7	2
bin	8	0
bin	9	2
bin	10	1
bin	11	1
bin	12	2
bin	13	0
bin	14	2
bin	15	1
bin	16	1
bin	17	2
bin	18	0
bin	19	0
bin	20	3
bin	21	1
bin	22	2
bin	23	1
bin	24	1
bin	25	2
bin	26	0
bin	27	0
bin	28	3
bin	29	1
bin	30	1
bin	31	1
bin	32	1
bin	33	1
bin	34	2
bin	35	0
bin	36	0
bin	37	3
bin	38	1
bin	39	1
bin	40	1
bin	41	2
bin	42	0
bin	43	0
bin	44	3
bin	45	1
bin	46	1
bin	47	1
bin	48	1
bin	49	1
bin	50	2
bin	51	0
bin	52	0
bin	53	3
bin	54	1
bin	55	1
bin	56	1
bin	57	1
bin	58	2
bin	59	0
bin	60	0
bin	61	3
bin	62	1
bin	63	1
bin	64	0
bin	65	0
bin	66	0
bin	67	0
bin	68	0
bin	69	0
bin	70	0
bin	71	0
bin	72	0
bin	73	0
bin	74	0
bin	75	0
bin	76	0
bin	77	0
bin	78	0
bin	79	0
bin	80	0
bin	81	0
bin	82	0
bin	83	0
bin	84	0
bin	85	0
bin	86	0
bin	87	0
bin	88	0
bin	89	0
bin	90	0
bin	91	0
bin	92	0
bin	93	0
bin	94	0
bin	95	0
scalar SimphonyDHTNetwork.members[115] 	#packetsInTheNetwork 	54
statistic SimphonyDHTNetwork.members[115] 	"packets statistics"
field count 60
field mean 27.233333333333
field stddev 15.035964418311
field sum 1634
field sqrsum 57838
field min 0
field max 53
attr type  int
bin	-INF	0
bin	-27	0
bin	-26	0
bin	-25	0
bin	-24	0
bin	-23	0
bin	-22	0
bin	-21	0
bin	-20	0
bin	-19	0
bin	-18	0
bin	-17	0
bin	-16	0
bin	-15	0
bin	-14	0
bin	-13	0
bin	-12	0
bin	-11	0
bin	-10	0
bin	-9	0
bin	-8	0
bin	-7	0
bin	-6	0
bin	-5	0
bin	-4	0
bin	-3	0
bin	-2	0
bin	-1	0
bin	0	1
bin	1	0
bin	2	0
bin	3	1
bin	4	3
bin	5	0
bin	6	0
bin	7	2
bin	8	0
bin	9	2
bin	10	1
bin	11	1
bin	12	2
bin	13	0
bin	14	2
bin	15	1
bin	16	1
bin	17	2
bin	18	0
bin	19	2
bin	20	1
bin	21	2
bin	22	1
bin	23	1
bin	24	1
bin	25	1
bin	26	2
bin	27	0
bin	28	2
bin	29	1
bin	30	1
bin	31	1
bin	32	1
bin	33	2
bin	34	1
bin	35	1
bin	36	1
bin	37	2
bin	38	0
bin	39	0
bin	40	3
bin	41	1
bin	42	1
bin	43	1
bin	44	1
bin	45	1
bin	46	2
bin	47	0
bin	48	0
bin	49	3
bin	50	1
bin	51	1
bin	52	1
bin	53	1
bin	54	0
bin	55	0
bin	56	0
bin	57	0
bin	58	0
bin	59	0
bin	60	0
bin	61	0
bin	62	0
bin	63	0
bin	64	0
bin	65	0
bin	66	0
bin	67	0
bin	68	0
bin	69	0
bin	70	0
bin	71	0
bin	72	0
bin	73	0
bin	74	0
bin	75	0
bin	76	0
bin	77	0
bin	78	0
bin	79	0
bin	80	0
scalar SimphonyDHTNetwork.members[116] 	#packetsInTheNetwork 	80
statistic SimphonyDHTNetwork.members[116] 	"packets statistics"
field count 91
field mean 39.868131868132
field stddev 22.579838003163
field sum 3628
field sqrsum 190528
field min 0
field max 79
attr type  int
bin	-INF	0
bin	-40	0
bin	-39	0
bin	-38	0
bin	-37	0
bin	-36	0
bin	-35	0
bin	-34	0
bin	-33	0
bin	-32	0
bin	-31	0
bin	-30	0
bin	-29	0
bin	-28	0
bin	-27	0
bin	-26	0
bin	-25	0
bin	-24	0
bin	-23	0
bin	-22	0
bin	-21	0
bin	-20	0
bin	-19	0
bin	-18	0
bin	-17	0
bin	-16	0
bin	-15	0
bin	-14	0
bin	-13	0
bin	-12	0
bin	-11	0
bin	-10	0
bin	-9	0
bin	-8	0
bin	-7	0
bin	-6	0
bin	-5	0
bin	-4	0
bin	-3	0
bin	-2	0
bin	-1	0
bin	0	1
bin	1	0
bin	2	0
bin	3	1
bin	4	3
bin	5	0
bin	6	0
bin	7	2
bin	8	0
bin	9	2
bin	10	1
bin	11	1
bin	12	2
bin	13	0
bin	14	2
bin	15	1
bin	16	1
bin	17	2
bin	18	0
bin	19	2
bin	20	1
bin	21	2
bin	22	1
bin	23	1
bin	24	2
bin	25	2
bin	26	1
bin	27	1
bin	28	2
bin	29	1
bin	30	0
bin	31	2
bin	32	1
bin	33	1
bin	34	2
bin	35	1
bin	36	0
bin	37	2
bin	38	1
bin	39	1
bin	40	1
bin	41	1
bin	42	1
bin	43	2
bin	44	0
bin	45	2
bin	46	1
bin	47	1
bin	48	1
bin	49	1
bin	50	1
bin	51	2
bin	52	0
bin	53	2
bin	54	1
bin	55	1
bin	56	1
bin	57	1
bin	58	1
bin	59	2
bin	60	0
bin	61	2
bin	62	1
bin	63	1
bin	64	1
bin	65	1
bin	66	1
bin	67	2
bin	68	0
bin	69	2
bin	70	1
bin	71	1
bin	72	1
bin	73	1
bin	74	1
bin	75	1
bin	76	2
bin	77	0
bin	78	2
bin	79	1
bin	80	0
bin	81	0
bin	82	0
bin	83	0
bin	84	0
bin	85	0
bin	86	0
bin	87	0
bin	88	0
bin	89	0
bin	90	0
bin	91	0
bin	92	0
bin	93	0
bin	94	0
bin	95	0
bin	96	0
bin	97	0
bin	98	0
bin	99	0
bin	100	0
bin	101	0
bin	102	0
bin	103	0
bin	104	0
bin	105	0
bin	106	0
bin	107	0
bin	108	0
bin	109	0
bin	110	0
bin	111	0
bin	112	0
bin	113	0
bin	114	0
bin	115	0
bin	116	0
bin	117	0
bin	118	0
bin	119	0
scalar SimphonyDHTNetwork.members[117] 	#packetsInTheNetwork 	29
statistic SimphonyDHTNetwork.members[117] 	"packets statistics"
field count 31
field mean 14.935483870968
field stddev 7.9369829862947
field sum 463
field sqrsum 8805
field min 0
field max 28
attr type  int
bin	-INF	0
bin	-14	0
bin	-13	0
bin	-12	0
bin	-11	0
bin	-10	0
bin	-9	0
bin	-8	0
bin	-7	0
bin	-6	0
bin	-5	0
bin	-4	0
bin	-3	0
bin	-2	0
bin	-1	0
bin	0	1
bin	1	0
bin	2	0
bin	3	1
bin	4	3
bin	5	0
bin	6	0
bin	7	2
bin	8	0
bin	9	2
bin	10	1
bin	11	1
bin	12	2
bin	13	0
bin	14	2
bin	15	1
bin	16	1
bin	17	2
bin	18	0
bin	19	0
bin	20	3
bin	21	1
bin	22	2
bin	23	1
bin	24	1
bin	25	1
bin	26	1
bin	27	1
bin	28	1
bin	29	0
bin	30	0
bin	31	0
bin	32	0
bin	33	0
bin	34	0
bin	35	0
bin	36	0
bin	37	0
bin	38	0
bin	39	0
bin	40	0
bin	41	0
bin	42	0
scalar SimphonyDHTNetwork.members[118] 	#packetsInTheNetwork 	55
statistic SimphonyDHTNetwork.members[118] 	"packets statistics"
field count 61
field mean 28.213114754098
field stddev 15.416565499594
field sum 1721
field sqrsum 62815
field min 0
field max 54
attr type  int
bin	-INF	0
bin	-27	0
bin	-26	0
bin	-25	0
bin	-24	0
bin	-23	0
bin	-22	0
bin	-21	0
bin	-20	0
bin	-19	0
bin	-18	0
bin	-17	0
bin	-16	0
bin	-15	0
bin	-14	0
bin	-13	0
bin	-12	0
bin	-11	0
bin	-10	0
bin	-9	0
bin	-8	0
bin	-7	0
bin	-6	0
bin	-5	0
bin	-4	0
bin	-3	0
bin	-2	0
bin	-1	0
bin	0	1
bin	1	0
bin	2	0
bin	3	1
bin	4	3
bin	5	0
bin	6	0
bin	7	1
bin	8	2
bin	9	0
bin	10	1
bin	11	2
bin	12	1
bin	13	2
bin	14	1
bin	15	0
bin	16	2
bin	17	1
bin	18	1
bin	19	2
bin	20	0
bin	21	2
bin	22	1
bin	23	1
bin	24	1
bin	25	1
bin	26	1
bin	27	2
bin	28	0
bin	29	2
bin	30	1
bin	31	1
bin	32	2
bin	33	0
bin	34	2
bin	35	1
bin	36	1
bin	37	1
bin	38	1
bin	39	1
bin	40	2
bin	41	0
bin	42	2
bin	43	1
bin	44	1
bin	45	2
bin	46	1
bin	47	1
bin	48	1
bin	49	1
bin	50	2
bin	51	0
bin	52	2
bin	53	1
bin	54	1
bin	55	0
bin	56	0
bin	57	0
bin	58	0
bin	59	0
bin	60	0
bin	61	0
bin	62	0
bin	63	0
bin	64	0
bin	65	0
bin	66	0
bin	67	0
bin	68	0
bin	69	0
bin	70	0
bin	71	0
bin	72	0
bin	73	0
bin	74	0
bin	75	0
bin	76	0
bin	77	0
bin	78	0
bin	79	0
bin	80	0
bin	81	0
scalar SimphonyDHTNetwork.members[119] 	#packetsInTheNetwork 	31
statistic SimphonyDHTNetwork.members[119] 	"packets statistics"
field count 34
field mean 16.058823529412
field stddev 8.5064723182555
field sum 546
field sqrsum 11156
field min 0
field max 30
attr type  int
bin	-INF	0
bin	-15	0
bin	-14	0
bin	-13	0
bin	-12	0
bin	-11	0
bin	-10	0
bin	-9	0
bin	-8	0
bin	-7	0
bin	-6	0
bin	-5	0
bin	-4	0
bin	-3	0
bin	-2	0
bin	-1	0
bin	0	1
bin	1	0
bin	2	0
bin	3	1
bin	4	3
bin	5	0
bin	6	0
bin	7	2
bin	8	0
bin	9	2
bin	10	1
bin	11	1
bin	12	2
bin	13	0
bin	14	2
bin	15	1
bin	16	1
bin	17	2
bin	18	0
bin	19	2
bin	20	1
bin	21	2
bin	22	1
bin	23	1
bin	24	1
bin	25	1
bin	26	2
bin	27	0
bin	28	2
bin	29	1
bin	30	1
bin	31	0
bin	32	0
bin	33	0
bin	34	0
bin	35	0
bin	36	0
bin	37	0
bin	38	0
bin	39	0
bin	40	0
bin	41	0
bin	42	0
bin	43	0
bin	44	0
bin	45	0
scalar SimphonyDHTNetwork.members[120] 	#packetsInTheNetwork 	32
statistic SimphonyDHTNetwork.members[120] 	"packets statistics"
field count 35
field mean 16.6
field stddev 8.8290962831125
field sum 581
field sqrsum 12295
field min 0
field max 31
attr type  int
bin	-INF	0
bin	-16	0
bin	-15	0
bin	-14	0
bin	-13	0
bin	-12	0
bin	-11	0
bin	-10	0
bin	-9	0
bin	-8	0
bin	-7	0
bin	-6	0
bin	-5	0
bin	-4	0
bin	-3	0
bin	-2	0
bin	-1	0
bin	0	1
bin	1	0
bin	2	0
bin	3	1
bin	4	3
bin	5	0
bin	6	0
bin	7	2
bin	8	0
bin	9	2
bin	10	1
bin	11	1
bin	12	2
bin	13	0
bin	14	2
bin	15	1
bin	16	1
bin	17	2
bin	18	0
bin	19	0
bin	20	3
bin	21	1
bin	22	2
bin	23	1
bin	24	1
bin	25	2
bin	26	0
bin	27	0
bin	28	3
bin	29	1
bin	30	1
bin	31	1
bin	32	0
bin	33	0
bin	34	0
bin	35	0
bin	36	0
bin	37	0
bin	38	0
bin	39	0
bin	40	0
bin	41	0
bin	42	0
bin	43	0
bin	44	0
bin	45	0
bin	46	0
bin	47	0
scalar SimphonyDHTNetwork.members[121] 	#packetsInTheNetwork 	31
statistic SimphonyDHTNetwork.members[121] 	"packets statistics"
field count 33
field mean 15.818181818182
field stddev 8.4574469605732
field sum 522
field sqrsum 10546
field min 0
field max 30
attr type  int
bin	-INF	0
bin	-15	0
bin	-14	0
bin	-13	0
bin	-12	0
bin	-11	0
bin	-10	0
bin	-9	0
bin	-8	0
bin	-7	0
bin	-6	0
bin	-5	0
bin	-4	0
bin	-3	0
bin	-2	0
bin	-1	0
bin	0	1
bin	1	0
bin	2	0
bin	3	1
bin	4	3
bin	5	0
bin	6	0
bin	7	2
bin	8	0
bin	9	2
bin	10	1
bin	11	1
bin	12	2
bin	13	0
bin	14	2
bin	15	1
bin	16	1
bin	17	2
bin	18	0
bin	19	0
bin	20	3
bin	21	1
bin	22	2
bin	23	1
bin	24	1
bin	25	1
bin	26	1
bin	27	1
bin	28	1
bin	29	1
bin	30	1
bin	31	0
bin	32	0
bin	33	0
bin	34	0
bin	35	0
bin	36	0
bin	37	0
bin	38	0
bin	39	0
bin	40	0
bin	41	0
bin	42	0
bin	43	0
bin	44	0
bin	45	0
scalar SimphonyDHTNetwork.members[122] 	#packetsInTheNetwork 	52
statistic SimphonyDHTNetwork.members[122] 	"packets statistics"
field count 57
field mean 27.035087719298
field stddev 14.792571630335
field sum 1541
field sqrsum 53915
field min 0
field max 51
attr type  int
bin	-INF	0
bin	-26	0
bin	-25	0
bin	-24	0
bin	-23	0
bin	-22	0
bin	-21	0
bin	-20	0
bin	-19	0
bin	-18	0
bin	-17	0
bin	-16	0
bin	-15	0
bin	-14	0
bin	-13	0
bin	-12	0
bin	-11	0
bin	-10	0
bin	-9	0
bin	-8	0
bin	-7	0
bin	-6	0
bin	-5	0
bin	-4	0
bin	-3	0
bin	-2	0
bin	-1	0
bin	0	1
bin	1	0
bin	2	0
bin	3	1
bin	4	3
bin	5	0
bin	6	0
bin	7	1
bin	8	2
bin	9	0
bin	10	1
bin	11	1
bin	12	2
bin	13	1
bin	14	2
bin	15	0
bin	16	1
bin	17	2
bin	18	1
bin	19	1
bin	20	1
bin	21	1
bin	22	1
bin	23	2
bin	24	0
bin	25	2
bin	26	1
bin	27	1
bin	28	2
bin	29	0
bin	30	0
bin	31	3
bin	32	1
bin	33	1
bin	34	1
bin	35	1
bin	36	1
bin	37	1
bin	38	2
bin	39	0
bin	40	0
bin	41	3
bin	42	1
bin	43	1
bin	44	1
bin	45	2
bin	46	0
bin	47	0
bin	48	3
bin	49	1
bin	50	2
bin	51	1
bin	52	0
bin	53	0
bin	54	0
bin	55	0
bin	56	0
bin	57	0
bin	58	0
bin	59	0
bin	60	0
bin	61	0
bin	62	0
bin	63	0
bin	64	0
bin	65	0
bin	66	0
bin	67	0
bin	68	0
bin	69	0
bin	70	0
bin	71	0
bin	72	0
bin	73	0
bin	74	0
bin	75	0
bin	76	0
bin	77	0
scalar SimphonyDHTNetwork.members[123] 	#packetsInTheNetwork 	46
statistic SimphonyDHTNetwork.members[123] 	"packets statistics"
field count 50
field mean 23.34
field stddev 12.880312456598
field sum 1167
field sqrsum 35367
field min 0
field max 45
attr type  int
bin	-INF	0
bin	-23	0
bin	-22	0
bin	-21	0
bin	-20	0
bin	-19	0
bin	-18	0
bin	-17	0
bin	-16	0
bin	-15	0
bin	-14	0
bin	-13	0
bin	-12	0
bin	-11	0
bin	-10	0
bin	-9	0
bin	-8	0
bin	-7	0
bin	-6	0
bin	-5	0
bin	-4	0
bin	-3	0
bin	-2	0
bin	-1	0
bin	0	1
bin	1	0
bin	2	0
bin	3	1
bin	4	3
bin	5	0
bin	6	0
bin	7	2
bin	8	0
bin	9	2
bin	10	1
bin	11	1
bin	12	2
bin	13	0
bin	14	2
bin	15	1
bin	16	1
bin	17	2
bin	18	0
bin	19	0
bin	20	3
bin	21	1
bin	22	2
bin	23	1
bin	24	1
bin	25	1
bin	26	1
bin	27	1
bin	28	1
bin	29	2
bin	30	0
bin	31	0
bin	32	3
bin	33	1
bin	34	1
bin	35	1
bin	36	1
bin	37	1
bin	38	1
bin	39	1
bin	40	2
bin	41	0
bin	42	0
bin	43	3
bin	44	1
bin	45	1
bin	46	0
bin	47	0
bin	48	0
bin	49	0
bin	50	0
bin	51	0
bin	52	0
bin	53	0
bin	54	0
bin	55	0
bin	56	0
bin	57	0
bin	58	0
bin	59	0
bin	60	0
bin	61	0
bin	62	0
bin	63	0
bin	64	0
bin	65	0
bin	66	0
bin	67	0
bin	68	0
scalar SimphonyDHTNetwork.members[124] 	#packetsInTheNetwork 	22
statistic SimphonyDHTNetwork.members[124] 	"packets statistics"
field count 24
field mean 12
field stddev 6.413301394961
field sum 288
field sqrsum 4402
field min 0
field max 22
attr type  int
bin	-INF	0
bin	-11	0
bin	-10	0
bin	-9	0
bin	-8	0
bin	-7	0
bin	-6	0
bin	-5	0
bin	-4	0
bin	-3	0
bin	-2	0
bin	-1	0
bin	0	1
bin	1	0
bin	2	0
bin	3	1
bin	4	3
bin	5	0
bin	6	0
bin	7	2
bin	8	0
bin	9	2
bin	10	1
bin	11	1
bin	12	2
bin	13	0
bin	14	2
bin	15	1
bin	16	1
bin	17	2
bin	18	0
bin	19	0
bin	20	3
bin	21	1
bin	22	1
bin	23	0
bin	24	0
bin	25	0
bin	26	0
bin	27	0
bin	28	0
bin	29	0
bin	30	0
bin	31	0
bin	32	0
bin	33	0
scalar SimphonyDHTNetwork.members[125] 	#packetsInTheNetwork 	49
statistic SimphonyDHTNetwork.members[125] 	"packets statistics"
field count 54
field mean 25.148148148148
field stddev 13.645660596311
field sum 1358
field sqrsum 44020
field min 0
field max 48
attr type  int
bin	-INF	0
bin	-24	0
bin	-23	0
bin	-22	0
bin	-21	0
bin	-20	0
bin	-19	0
bin	-18	0
bin	-17	0
bin	-16	0
bin	-15	0
bin	-14	0
bin	-13	0
bin	-12	0
bin	-11	0
bin	-10	0
bin	-9	0
bin	-8	0
bin	-7	0
bin	-6	0
bin	-5	0
bin	-4	0
bin	-3	0
bin	-2	0
bin	-1	0
bin	0	1
bin	1	0
bin	2	0
bin	3	1
bin	4	3
bin	5	0
bin	6	0
bin	7	1
bin	8	2
bin	9	0
bin	10	1
bin	11	2
bin	12	1
bin	13	2
bin	14	1
bin	15	0
bin	16	2
bin	17	1
bin	18	1
bin	19	2
bin	20	0
bin	21	2
bin	22	1
bin	23	1
bin	24	1
bin	25	1
bin	26	1
bin	27	2
bin	28	0
bin	29	2
bin	30	1
bin	31	1
bin	32	2
bin	33	0
bin	34	0
bin	35	3
bin	36	1
bin	37	2
bin	38	1
bin	39	1
bin	40	1
bin	41	2
bin	42	0
bin	43	0
bin	44	3
bin	45	1
bin	46	1
bin	47	1
bin	48	1
bin	49	0
bin	50	0
bin	51	0
bin	52	0
bin	53	0
bin	54	0
bin	55	0
bin	56	0
bin	57	0
bin	58	0
bin	59	0
bin	60	0
bin	61	0
bin	62	0
bin	63	0
bin	64	0
bin	65	0
bin	66	0
bin	67	0
bin	68	0
bin	69	0
bin	70	0
bin	71	0
bin	72	0
scalar SimphonyDHTNetwork.members[126] 	#packetsInTheNetwork 	39
statistic SimphonyDHTNetwork.members[126] 	"packets statistics"
field count 42
field mean 20.380952380952
field stddev 11.01872548283
field sum 856
field sqrsum 22424
field min 0
field max 38
attr type  int
bin	-INF	0
bin	-19	0
bin	-18	0
bin	-17	0
bin	-16	0
bin	-15	0
bin	-14	0
bin	-13	0
bin	-12	0
bin	-11	0
bin	-10	0
bin	-9	0
bin	-8	0
bin	-7	0
bin	-6	0
bin	-5	0
bin	-4	0
bin	-3	0
bin	-2	0
bin	-1	0
bin	0	1
bin	1	0
bin	2	0
bin	3	1
bin	4	3
bin	5	0
bin	6	0
bin	7	2
bin	8	0
bin	9	1
bin	10	2
bin	11	1
bin	12	1
bin	13	1
bin	14	1
bin	15	2
bin	16	0
bin	17	0
bin	18	3
bin	19	1
bin	20	1
bin	21	2
bin	22	0
bin	23	0
bin	24	0
bin	25	4
bin	26	1
bin	27	2
bin	28	1
bin	29	1
bin	30	2
bin	31	0
bin	32	0
bin	33	0
bin	34	0
bin	35	5
bin	36	1
bin	37	1
bin	38	1
bin	39	0
bin	40	0
bin	41	0
bin	42	0
bin	43	0
bin	44	0
bin	45	0
bin	46	0
bin	47	0
bin	48	0
bin	49	0
bin	50	0
bin	51	0
bin	52	0
bin	53	0
bin	54	0
bin	55	0
bin	56	0
bin	57	0
scalar SimphonyDHTNetwork.members[127] 	#packetsInTheNetwork 	49
statistic SimphonyDHTNetwork.members[127] 	"packets statistics"
field count 54
field mean 25.277777777778
field stddev 13.743494744742
field sum 1365
field sqrsum 44515
field min 0
field max 48
attr type  int
bin	-INF	0
bin	-24	0
bin	-23	0
bin	-22	0
bin	-21	0
bin	-20	0
bin	-19	0
bin	-18	0
bin	-17	0
bin	-16	0
bin	-15	0
bin	-14	0
bin	-13	0
bin	-12	0
bin	-11	0
bin	-10	0
bin	-9	0
bin	-8	0
bin	-7	0
bin	-6	0
bin	-5	0
bin	-4	0
bin	-3	0
bin	-2	0
bin	-1	0
bin	0	1
bin	1	0
bin	2	0
bin	3	1
bin	4	3
bin	5	0
bin	6	0
bin	7	1
bin	8	2
bin	9	0
bin	10	1
bin	11	2
bin	12	1
bin	13	2
bin	14	0
bin	15	1
bin	16	2
bin	17	1
bin	18	1
bin	19	2
bin	20	0
bin	21	0
bin	22	3
bin	23	1
bin	24	2
bin	25	0
bin	26	0
bin	27	3
bin	28	1
bin	29	1
bin	30	1
bin	31	1
bin	32	1
bin	33	2
bin	34	0
bin	35	0
bin	36	3
bin	37	2
bin	38	1
bin	39	1
bin	40	1
bin	41	1
bin	42	2
bin	43	0
bin	44	0
bin	45	0
bin	46	4
bin	47	1
bin	48	1
bin	49	0
bin	50	0
bin	51	0
bin	52	0
bin	53	0
bin	54	0
bin	55	0
bin	56	0
bin	57	0
bin	58	0
bin	59	0
bin	60	0
bin	61	0
bin	62	0
bin	63	0
bin	64	0
bin	65	0
bin	66	0
bin	67	0
bin	68	0
bin	69	0
bin	70	0
bin	71	0
bin	72	0
