version 2
run TwoThousandNodes-0-20130111-17:21:06-3238
attr configname TwoThousandNodes
attr datetime 20130111-17:21:06
attr experiment TwoThousandNodes
attr inifile omnetpp.ini
attr iterationvars ""
attr iterationvars2 $repetition=0
attr measurement ""
attr network SimphonyDHTNetwork
attr processid 3238
attr repetition 0
attr replication #0
attr resultdir results
attr runnumber 0
attr seedset 0

scalar SimphonyDHTNetwork.members[0] 	#packetsInTheNetwork 	2416
statistic SimphonyDHTNetwork.members[0] 	"packets statistics"
field count 2546
field mean 1197.1673212883
field stddev 697.28504168666
field sum 3047988
field sqrsum 4886346992
field min 0
field max 2415
attr type  int
bin	-INF	0
bin	-46	0
bin	-45	0
bin	-44	0
bin	-43	0
bin	-42	0
bin	-41	0
bin	-40	0
bin	-39	0
bin	-38	0
bin	-37	0
bin	-36	0
bin	-35	0
bin	-34	0
bin	-33	0
bin	-32	0
bin	-31	0
bin	-30	0
bin	-29	0
bin	-28	0
bin	-27	0
bin	-26	0
bin	-25	0
bin	-24	0
bin	-23	0
bin	-22	0
bin	-21	0
bin	-20	0
bin	-19	0
bin	-18	0
bin	-17	0
bin	-16	0
bin	-15	0
bin	-14	0
bin	-13	0
bin	-12	0
bin	-11	0
bin	-10	0
bin	-9	0
bin	-8	0
bin	-7	0
bin	-6	0
bin	-5	0
bin	-4	0
bin	-3	0
bin	-2	0
bin	-1	0
bin	0	1
bin	1	1
bin	2	1
bin	3	2
bin	4	0
bin	5	0
bin	6	0
bin	7	0
bin	8	5
bin	9	1
bin	10	1
bin	11	1
bin	12	1
bin	13	1
bin	14	2
bin	15	0
bin	16	0
bin	17	0
bin	18	0
bin	19	5
bin	20	1
bin	21	1
bin	22	1
bin	23	1
bin	24	1
bin	25	2
bin	26	0
bin	27	0
bin	28	0
bin	29	0
bin	30	5
bin	31	1
bin	32	1
bin	33	1
bin	34	1
bin	35	1
bin	36	1
bin	37	2
bin	38	0
bin	39	0
bin	40	0
bin	41	0
bin	42	5
bin	43	1
bin	44	1
bin	45	1
bin	46	1
bin	47	1
bin	48	1
bin	49	1
bin	50	1
bin	51	1
bin	52	1
bin	53	2
bin	54	0
bin	55	0
bin	56	0
bin	57	0
bin	58	5
bin	59	1
bin	60	1
bin	61	1
bin	62	1
bin	63	1
bin	64	1
bin	65	1
bin	66	1
bin	67	2
bin	68	0
bin	69	0
bin	70	0
bin	71	0
bin	72	5
bin	73	1
bin	74	1
bin	75	1
bin	76	1
bin	77	1
bin	78	2
bin	79	0
bin	80	0
bin	81	0
bin	82	0
bin	83	5
bin	84	1
bin	85	1
bin	86	1
bin	87	1
bin	88	1
bin	89	1
bin	90	1
bin	91	1
bin	92	1
bin	93	2
bin	94	0
bin	95	0
bin	96	0
bin	97	0
bin	98	5
bin	99	1
bin	100	1
bin	101	1
bin	102	1
bin	103	2
bin	104	0
bin	105	0
bin	106	0
bin	107	0
bin	108	5
bin	109	1
bin	110	1
bin	111	1
bin	112	1
bin	113	2
bin	114	0
bin	115	0
bin	116	0
bin	117	0
bin	118	5
bin	119	1
bin	120	1
bin	121	1
bin	122	1
bin	123	1
bin	124	1
bin	125	1
bin	126	1
bin	127	1
bin	128	1
bin	129	1
bin	130	1
bin	131	1
bin	132	1
bin	133	1
bin	134	1
bin	135	1
bin	136	1
bin	137	1
bin	138	2398
scalar SimphonyDHTNetwork.members[1] 	#packetsInTheNetwork 	7263
statistic SimphonyDHTNetwork.members[1] 	"packets statistics"
field count 7875
field mean 3637.9192380952
field stddev 2095.8667454324
field sum 28648614
field sqrsum 138809128498
field min 0
field max 7262
attr type  int
bin	-INF	0
bin	-46	0
bin	-45	0
bin	-44	0
bin	-43	0
bin	-42	0
bin	-41	0
bin	-40	0
bin	-39	0
bin	-38	0
bin	-37	0
bin	-36	0
bin	-35	0
bin	-34	0
bin	-33	0
bin	-32	0
bin	-31	0
bin	-30	0
bin	-29	0
bin	-28	0
bin	-27	0
bin	-26	0
bin	-25	0
bin	-24	0
bin	-23	0
bin	-22	0
bin	-21	0
bin	-20	0
bin	-19	0
bin	-18	0
bin	-17	0
bin	-16	0
bin	-15	0
bin	-14	0
bin	-13	0
bin	-12	0
bin	-11	0
bin	-10	0
bin	-9	0
bin	-8	0
bin	-7	0
bin	-6	0
bin	-5	0
bin	-4	0
bin	-3	0
bin	-2	0
bin	-1	0
bin	0	1
bin	1	1
bin	2	1
bin	3	2
bin	4	0
bin	5	0
bin	6	0
bin	7	0
bin	8	5
bin	9	1
bin	10	1
bin	11	1
bin	12	1
bin	13	1
bin	14	1
bin	15	2
bin	16	0
bin	17	0
bin	18	0
bin	19	0
bin	20	5
bin	21	1
bin	22	1
bin	23	1
bin	24	1
bin	25	2
bin	26	0
bin	27	0
bin	28	0
bin	29	0
bin	30	5
bin	31	1
bin	32	1
bin	33	1
bin	34	1
bin	35	1
bin	36	2
bin	37	0
bin	38	0
bin	39	0
bin	40	0
bin	41	5
bin	42	1
bin	43	1
bin	44	1
bin	45	1
bin	46	2
bin	47	1
bin	48	1
bin	49	1
bin	50	1
bin	51	1
bin	52	1
bin	53	1
bin	54	1
bin	55	1
bin	56	1
bin	57	1
bin	58	1
bin	59	1
bin	60	1
bin	61	1
bin	62	1
bin	63	1
bin	64	1
bin	65	2
bin	66	0
bin	67	0
bin	68	0
bin	69	0
bin	70	0
bin	71	6
bin	72	1
bin	73	1
bin	74	1
bin	75	1
bin	76	1
bin	77	1
bin	78	1
bin	79	1
bin	80	1
bin	81	1
bin	82	1
bin	83	1
bin	84	2
bin	85	0
bin	86	0
bin	87	0
bin	88	0
bin	89	0
bin	90	6
bin	91	1
bin	92	1
bin	93	1
bin	94	1
bin	95	1
bin	96	2
bin	97	1
bin	98	1
bin	99	1
bin	100	2
bin	101	0
bin	102	0
bin	103	0
bin	104	0
bin	105	0
bin	106	0
bin	107	7
bin	108	1
bin	109	1
bin	110	1
bin	111	1
bin	112	2
bin	113	0
bin	114	0
bin	115	0
bin	116	0
bin	117	0
bin	118	0
bin	119	7
bin	120	1
bin	121	1
bin	122	1
bin	123	1
bin	124	1
bin	125	1
bin	126	1
bin	127	2
bin	128	0
bin	129	0
bin	130	0
bin	131	0
bin	132	0
bin	133	0
bin	134	7
bin	135	1
bin	136	1
bin	137	1
bin	138	7726
scalar SimphonyDHTNetwork.members[2] 	#packetsInTheNetwork 	9098
statistic SimphonyDHTNetwork.members[2] 	"packets statistics"
field count 9958
field mean 4561.2803775859
field stddev 2629.2594598364
field sum 45421230
field sqrsum 276011758968
field min 0
field max 9097
attr type  int
bin	-INF	0
bin	-46	0
bin	-45	0
bin	-44	0
bin	-43	0
bin	-42	0
bin	-41	0
bin	-40	0
bin	-39	0
bin	-38	0
bin	-37	0
bin	-36	0
bin	-35	0
bin	-34	0
bin	-33	0
bin	-32	0
bin	-31	0
bin	-30	0
bin	-29	0
bin	-28	0
bin	-27	0
bin	-26	0
bin	-25	0
bin	-24	0
bin	-23	0
bin	-22	0
bin	-21	0
bin	-20	0
bin	-19	0
bin	-18	0
bin	-17	0
bin	-16	0
bin	-15	0
bin	-14	0
bin	-13	0
bin	-12	0
bin	-11	0
bin	-10	0
bin	-9	0
bin	-8	0
bin	-7	0
bin	-6	0
bin	-5	0
bin	-4	0
bin	-3	0
bin	-2	0
bin	-1	0
bin	0	1
bin	1	1
bin	2	1
bin	3	2
bin	4	0
bin	5	0
bin	6	0
bin	7	0
bin	8	5
bin	9	1
bin	10	1
bin	11	1
bin	12	1
bin	13	1
bin	14	1
bin	15	2
bin	16	0
bin	17	0
bin	18	0
bin	19	0
bin	20	5
bin	21	1
bin	22	1
bin	23	1
bin	24	1
bin	25	1
bin	26	1
bin	27	2
bin	28	0
bin	29	0
bin	30	0
bin	31	0
bin	32	5
bin	33	1
bin	34	1
bin	35	1
bin	36	1
bin	37	2
bin	38	0
bin	39	0
bin	40	0
bin	41	0
bin	42	5
bin	43	1
bin	44	1
bin	45	1
bin	46	1
bin	47	1
bin	48	1
bin	49	1
bin	50	1
bin	51	1
bin	52	1
bin	53	2
bin	54	1
bin	55	2
bin	56	1
bin	57	1
bin	58	1
bin	59	1
bin	60	2
bin	61	0
bin	62	0
bin	63	0
bin	64	0
bin	65	0
bin	66	0
bin	67	7
bin	68	1
bin	69	1
bin	70	1
bin	71	1
bin	72	2
bin	73	0
bin	74	0
bin	75	0
bin	76	0
bin	77	0
bin	78	0
bin	79	7
bin	80	1
bin	81	1
bin	82	1
bin	83	1
bin	84	1
bin	85	2
bin	86	0
bin	87	0
bin	88	0
bin	89	0
bin	90	0
bin	91	0
bin	92	7
bin	93	1
bin	94	1
bin	95	1
bin	96	1
bin	97	2
bin	98	0
bin	99	0
bin	100	0
bin	101	0
bin	102	0
bin	103	0
bin	104	7
bin	105	1
bin	106	1
bin	107	1
bin	108	1
bin	109	1
bin	110	2
bin	111	1
bin	112	1
bin	113	2
bin	114	1
bin	115	1
bin	116	2
bin	117	0
bin	118	0
bin	119	0
bin	120	0
bin	121	0
bin	122	0
bin	123	0
bin	124	8
bin	125	1
bin	126	1
bin	127	1
bin	128	1
bin	129	1
bin	130	1
bin	131	1
bin	132	2
bin	133	0
bin	134	0
bin	135	0
bin	136	0
bin	137	0
bin	138	9811
scalar SimphonyDHTNetwork.members[3] 	#packetsInTheNetwork 	13183
statistic SimphonyDHTNetwork.members[3] 	"packets statistics"
field count 14212
field mean 6588.0539684773
field stddev 3806.0769068482
field sum 93629423
field sqrsum 822699384373
field min 0
field max 13182
attr type  int
bin	-INF	0
bin	-46	0
bin	-45	0
bin	-44	0
bin	-43	0
bin	-42	0
bin	-41	0
bin	-40	0
bin	-39	0
bin	-38	0
bin	-37	0
bin	-36	0
bin	-35	0
bin	-34	0
bin	-33	0
bin	-32	0
bin	-31	0
bin	-30	0
bin	-29	0
bin	-28	0
bin	-27	0
bin	-26	0
bin	-25	0
bin	-24	0
bin	-23	0
bin	-22	0
bin	-21	0
bin	-20	0
bin	-19	0
bin	-18	0
bin	-17	0
bin	-16	0
bin	-15	0
bin	-14	0
bin	-13	0
bin	-12	0
bin	-11	0
bin	-10	0
bin	-9	0
bin	-8	0
bin	-7	0
bin	-6	0
bin	-5	0
bin	-4	0
bin	-3	0
bin	-2	0
bin	-1	0
bin	0	1
bin	1	1
bin	2	2
bin	3	0
bin	4	0
bin	5	0
bin	6	0
bin	7	5
bin	8	1
bin	9	1
bin	10	1
bin	11	1
bin	12	1
bin	13	1
bin	14	1
bin	15	1
bin	16	1
bin	17	1
bin	18	1
bin	19	1
bin	20	1
bin	21	2
bin	22	0
bin	23	0
bin	24	0
bin	25	0
bin	26	5
bin	27	1
bin	28	1
bin	29	1
bin	30	1
bin	31	1
bin	32	1
bin	33	1
bin	34	1
bin	35	1
bin	36	2
bin	37	1
bin	38	0
bin	39	0
bin	40	0
bin	41	0
bin	42	6
bin	43	1
bin	44	0
bin	45	0
bin	46	0
bin	47	0
bin	48	5
bin	49	1
bin	50	1
bin	51	1
bin	52	1
bin	53	1
bin	54	1
bin	55	1
bin	56	1
bin	57	1
bin	58	2
bin	59	0
bin	60	0
bin	61	0
bin	62	0
bin	63	5
bin	64	1
bin	65	1
bin	66	1
bin	67	1
bin	68	1
bin	69	1
bin	70	1
bin	71	2
bin	72	0
bin	73	0
bin	74	0
bin	75	0
bin	76	5
bin	77	1
bin	78	1
bin	79	1
bin	80	1
bin	81	2
bin	82	0
bin	83	0
bin	84	0
bin	85	0
bin	86	5
bin	87	1
bin	88	1
bin	89	1
bin	90	1
bin	91	1
bin	92	2
bin	93	0
bin	94	0
bin	95	0
bin	96	0
bin	97	5
bin	98	1
bin	99	1
bin	100	1
bin	101	1
bin	102	1
bin	103	1
bin	104	1
bin	105	1
bin	106	1
bin	107	1
bin	108	2
bin	109	0
bin	110	0
bin	111	0
bin	112	0
bin	113	5
bin	114	1
bin	115	1
bin	116	1
bin	117	1
bin	118	2
bin	119	1
bin	120	1
bin	121	2
bin	122	0
bin	123	0
bin	124	0
bin	125	0
bin	126	0
bin	127	6
bin	128	1
bin	129	1
bin	130	1
bin	131	1
bin	132	2
bin	133	1
bin	134	1
bin	135	2
bin	136	0
bin	137	0
bin	138	14063
scalar SimphonyDHTNetwork.members[4] 	#packetsInTheNetwork 	12720
statistic SimphonyDHTNetwork.members[4] 	"packets statistics"
field count 13640
field mean 6353.2507331378
field stddev 3671.4659836944
field sum 86658340
field sqrsum 734411278558
field min 0
field max 12719
attr type  int
bin	-INF	0
bin	-46	0
bin	-45	0
bin	-44	0
bin	-43	0
bin	-42	0
bin	-41	0
bin	-40	0
bin	-39	0
bin	-38	0
bin	-37	0
bin	-36	0
bin	-35	0
bin	-34	0
bin	-33	0
bin	-32	0
bin	-31	0
bin	-30	0
bin	-29	0
bin	-28	0
bin	-27	0
bin	-26	0
bin	-25	0
bin	-24	0
bin	-23	0
bin	-22	0
bin	-21	0
bin	-20	0
bin	-19	0
bin	-18	0
bin	-17	0
bin	-16	0
bin	-15	0
bin	-14	0
bin	-13	0
bin	-12	0
bin	-11	0
bin	-10	0
bin	-9	0
bin	-8	0
bin	-7	0
bin	-6	0
bin	-5	0
bin	-4	0
bin	-3	0
bin	-2	0
bin	-1	0
bin	0	1
bin	1	1
bin	2	1
bin	3	1
bin	4	1
bin	5	1
bin	6	1
bin	7	1
bin	8	1
bin	9	1
bin	10	1
bin	11	2
bin	12	0
bin	13	0
bin	14	0
bin	15	0
bin	16	5
bin	17	1
bin	18	1
bin	19	1
bin	20	1
bin	21	1
bin	22	1
bin	23	1
bin	24	1
bin	25	1
bin	26	2
bin	27	1
bin	28	0
bin	29	0
bin	30	0
bin	31	0
bin	32	6
bin	33	1
bin	34	0
bin	35	0
bin	36	0
bin	37	0
bin	38	5
bin	39	1
bin	40	1
bin	41	1
bin	42	1
bin	43	1
bin	44	1
bin	45	1
bin	46	1
bin	47	2
bin	48	0
bin	49	0
bin	50	0
bin	51	0
bin	52	5
bin	53	1
bin	54	1
bin	55	1
bin	56	1
bin	57	1
bin	58	1
bin	59	2
bin	60	0
bin	61	0
bin	62	0
bin	63	0
bin	64	5
bin	65	1
bin	66	1
bin	67	1
bin	68	1
bin	69	1
bin	70	1
bin	71	1
bin	72	2
bin	73	0
bin	74	0
bin	75	0
bin	76	0
bin	77	5
bin	78	1
bin	79	1
bin	80	1
bin	81	1
bin	82	1
bin	83	1
bin	84	2
bin	85	0
bin	86	0
bin	87	0
bin	88	0
bin	89	5
bin	90	1
bin	91	1
bin	92	1
bin	93	1
bin	94	1
bin	95	2
bin	96	0
bin	97	0
bin	98	0
bin	99	0
bin	100	5
bin	101	1
bin	102	1
bin	103	1
bin	104	1
bin	105	1
bin	106	1
bin	107	1
bin	108	2
bin	109	0
bin	110	0
bin	111	0
bin	112	0
bin	113	5
bin	114	1
bin	115	1
bin	116	1
bin	117	1
bin	118	2
bin	119	0
bin	120	0
bin	121	0
bin	122	0
bin	123	5
bin	124	1
bin	125	1
bin	126	1
bin	127	1
bin	128	2
bin	129	1
bin	130	1
bin	131	2
bin	132	0
bin	133	0
bin	134	0
bin	135	0
bin	136	0
bin	137	6
bin	138	13490
scalar SimphonyDHTNetwork.members[5] 	#packetsInTheNetwork 	12638
statistic SimphonyDHTNetwork.members[5] 	"packets statistics"
field count 13565
field mean 6331.7255436786
field stddev 3659.8832286711
field sum 85889857
field sqrsum 725517326047
field min 0
field max 12637
attr type  int
bin	-INF	0
bin	-48	0
bin	-47	0
bin	-46	0
bin	-45	0
bin	-44	0
bin	-43	0
bin	-42	0
bin	-41	0
bin	-40	0
bin	-39	0
bin	-38	0
bin	-37	0
bin	-36	0
bin	-35	0
bin	-34	0
bin	-33	0
bin	-32	0
bin	-31	0
bin	-30	0
bin	-29	0
bin	-28	0
bin	-27	0
bin	-26	0
bin	-25	0
bin	-24	0
bin	-23	0
bin	-22	0
bin	-21	0
bin	-20	0
bin	-19	0
bin	-18	0
bin	-17	0
bin	-16	0
bin	-15	0
bin	-14	0
bin	-13	0
bin	-12	0
bin	-11	0
bin	-10	0
bin	-9	0
bin	-8	0
bin	-7	0
bin	-6	0
bin	-5	0
bin	-4	0
bin	-3	0
bin	-2	0
bin	-1	0
bin	0	1
bin	1	1
bin	2	1
bin	3	1
bin	4	1
bin	5	1
bin	6	1
bin	7	1
bin	8	1
bin	9	2
bin	10	0
bin	11	0
bin	12	0
bin	13	0
bin	14	5
bin	15	1
bin	16	1
bin	17	1
bin	18	1
bin	19	1
bin	20	2
bin	21	1
bin	22	1
bin	23	1
bin	24	1
bin	25	2
bin	26	1
bin	27	0
bin	28	0
bin	29	0
bin	30	0
bin	31	0
bin	32	7
bin	33	1
bin	34	0
bin	35	0
bin	36	0
bin	37	0
bin	38	0
bin	39	6
bin	40	1
bin	41	1
bin	42	1
bin	43	1
bin	44	1
bin	45	1
bin	46	1
bin	47	1
bin	48	1
bin	49	1
bin	50	1
bin	51	1
bin	52	2
bin	53	0
bin	54	0
bin	55	0
bin	56	0
bin	57	0
bin	58	6
bin	59	1
bin	60	1
bin	61	1
bin	62	1
bin	63	1
bin	64	1
bin	65	2
bin	66	0
bin	67	0
bin	68	0
bin	69	0
bin	70	0
bin	71	6
bin	72	1
bin	73	1
bin	74	1
bin	75	1
bin	76	1
bin	77	2
bin	78	0
bin	79	0
bin	80	0
bin	81	0
bin	82	0
bin	83	6
bin	84	1
bin	85	1
bin	86	1
bin	87	1
bin	88	1
bin	89	2
bin	90	0
bin	91	0
bin	92	0
bin	93	0
bin	94	0
bin	95	6
bin	96	1
bin	97	1
bin	98	1
bin	99	1
bin	100	2
bin	101	0
bin	102	0
bin	103	0
bin	104	0
bin	105	0
bin	106	6
bin	107	1
bin	108	1
bin	109	1
bin	110	1
bin	111	2
bin	112	0
bin	113	0
bin	114	0
bin	115	0
bin	116	0
bin	117	6
bin	118	1
bin	119	1
bin	120	1
bin	121	1
bin	122	1
bin	123	1
bin	124	1
bin	125	2
bin	126	0
bin	127	0
bin	128	0
bin	129	0
bin	130	0
bin	131	6
bin	132	1
bin	133	1
bin	134	1
bin	135	1
bin	136	1
bin	137	1
bin	138	1
bin	139	1
bin	140	1
bin	141	1
bin	142	1
bin	143	13411
scalar SimphonyDHTNetwork.members[6] 	#packetsInTheNetwork 	10797
statistic SimphonyDHTNetwork.members[6] 	"packets statistics"
field count 11554
field mean 5399.1656569154
field stddev 3120.1288350175
field sum 62381960
field sqrsum 449281347244
field min 0
field max 10796
attr type  int
bin	-INF	0
bin	-46	0
bin	-45	0
bin	-44	0
bin	-43	0
bin	-42	0
bin	-41	0
bin	-40	0
bin	-39	0
bin	-38	0
bin	-37	0
bin	-36	0
bin	-35	0
bin	-34	0
bin	-33	0
bin	-32	0
bin	-31	0
bin	-30	0
bin	-29	0
bin	-28	0
bin	-27	0
bin	-26	0
bin	-25	0
bin	-24	0
bin	-23	0
bin	-22	0
bin	-21	0
bin	-20	0
bin	-19	0
bin	-18	0
bin	-17	0
bin	-16	0
bin	-15	0
bin	-14	0
bin	-13	0
bin	-12	0
bin	-11	0
bin	-10	0
bin	-9	0
bin	-8	0
bin	-7	0
bin	-6	0
bin	-5	0
bin	-4	0
bin	-3	0
bin	-2	0
bin	-1	0
bin	0	1
bin	1	1
bin	2	1
bin	3	1
bin	4	1
bin	5	1
bin	6	1
bin	7	1
bin	8	1
bin	9	2
bin	10	0
bin	11	0
bin	12	0
bin	13	0
bin	14	5
bin	15	1
bin	16	1
bin	17	1
bin	18	1
bin	19	1
bin	20	2
bin	21	0
bin	22	0
bin	23	0
bin	24	0
bin	25	5
bin	26	1
bin	27	1
bin	28	1
bin	29	1
bin	30	2
bin	31	0
bin	32	0
bin	33	0
bin	34	0
bin	35	5
bin	36	1
bin	37	1
bin	38	1
bin	39	1
bin	40	1
bin	41	1
bin	42	1
bin	43	2
bin	44	0
bin	45	0
bin	46	0
bin	47	0
bin	48	5
bin	49	1
bin	50	1
bin	51	1
bin	52	1
bin	53	2
bin	54	0
bin	55	0
bin	56	0
bin	57	0
bin	58	5
bin	59	1
bin	60	1
bin	61	1
bin	62	1
bin	63	1
bin	64	1
bin	65	1
bin	66	1
bin	67	2
bin	68	0
bin	69	0
bin	70	0
bin	71	0
bin	72	5
bin	73	1
bin	74	1
bin	75	1
bin	76	1
bin	77	1
bin	78	2
bin	79	0
bin	80	0
bin	81	0
bin	82	0
bin	83	5
bin	84	1
bin	85	1
bin	86	1
bin	87	1
bin	88	1
bin	89	1
bin	90	1
bin	91	1
bin	92	1
bin	93	1
bin	94	2
bin	95	0
bin	96	0
bin	97	0
bin	98	0
bin	99	5
bin	100	1
bin	101	1
bin	102	1
bin	103	1
bin	104	1
bin	105	1
bin	106	1
bin	107	1
bin	108	2
bin	109	0
bin	110	0
bin	111	0
bin	112	0
bin	113	5
bin	114	1
bin	115	1
bin	116	1
bin	117	1
bin	118	1
bin	119	2
bin	120	0
bin	121	0
bin	122	0
bin	123	0
bin	124	5
bin	125	1
bin	126	1
bin	127	1
bin	128	1
bin	129	2
bin	130	0
bin	131	0
bin	132	0
bin	133	0
bin	134	5
bin	135	1
bin	136	1
bin	137	1
bin	138	11405
scalar SimphonyDHTNetwork.members[7] 	#packetsInTheNetwork 	10936
statistic SimphonyDHTNetwork.members[7] 	"packets statistics"
field count 11722
field mean 5471.8470397543
field stddev 3156.1654173521
field sum 64140991
field sqrsum 467727028371
field min 0
field max 10935
attr type  int
bin	-INF	0
bin	-46	0
bin	-45	0
bin	-44	0
bin	-43	0
bin	-42	0
bin	-41	0
bin	-40	0
bin	-39	0
bin	-38	0
bin	-37	0
bin	-36	0
bin	-35	0
bin	-34	0
bin	-33	0
bin	-32	0
bin	-31	0
bin	-30	0
bin	-29	0
bin	-28	0
bin	-27	0
bin	-26	0
bin	-25	0
bin	-24	0
bin	-23	0
bin	-22	0
bin	-21	0
bin	-20	0
bin	-19	0
bin	-18	0
bin	-17	0
bin	-16	0
bin	-15	0
bin	-14	0
bin	-13	0
bin	-12	0
bin	-11	0
bin	-10	0
bin	-9	0
bin	-8	0
bin	-7	0
bin	-6	0
bin	-5	0
bin	-4	0
bin	-3	0
bin	-2	0
bin	-1	0
bin	0	1
bin	1	1
bin	2	1
bin	3	1
bin	4	1
bin	5	1
bin	6	1
bin	7	2
bin	8	0
bin	9	0
bin	10	0
bin	11	0
bin	12	5
bin	13	1
bin	14	1
bin	15	1
bin	16	1
bin	17	1
bin	18	2
bin	19	0
bin	20	0
bin	21	0
bin	22	0
bin	23	5
bin	24	1
bin	25	1
bin	26	1
bin	27	1
bin	28	1
bin	29	2
bin	30	0
bin	31	0
bin	32	0
bin	33	0
bin	34	5
bin	35	1
bin	36	1
bin	37	1
bin	38	1
bin	39	1
bin	40	2
bin	41	0
bin	42	0
bin	43	0
bin	44	0
bin	45	5
bin	46	1
bin	47	1
bin	48	1
bin	49	1
bin	50	1
bin	51	1
bin	52	1
bin	53	1
bin	54	1
bin	55	1
bin	56	1
bin	57	1
bin	58	1
bin	59	1
bin	60	1
bin	61	1
bin	62	1
bin	63	2
bin	64	1
bin	65	1
bin	66	1
bin	67	2
bin	68	0
bin	69	0
bin	70	0
bin	71	0
bin	72	0
bin	73	6
bin	74	1
bin	75	1
bin	76	1
bin	77	1
bin	78	1
bin	79	2
bin	80	0
bin	81	0
bin	82	0
bin	83	0
bin	84	0
bin	85	6
bin	86	1
bin	87	1
bin	88	1
bin	89	1
bin	90	1
bin	91	1
bin	92	1
bin	93	2
bin	94	0
bin	95	0
bin	96	0
bin	97	0
bin	98	0
bin	99	6
bin	100	1
bin	101	1
bin	102	1
bin	103	1
bin	104	2
bin	105	0
bin	106	0
bin	107	0
bin	108	0
bin	109	0
bin	110	6
bin	111	1
bin	112	1
bin	113	1
bin	114	1
bin	115	2
bin	116	0
bin	117	0
bin	118	0
bin	119	0
bin	120	0
bin	121	6
bin	122	1
bin	123	1
bin	124	1
bin	125	1
bin	126	1
bin	127	1
bin	128	1
bin	129	1
bin	130	1
bin	131	1
bin	132	1
bin	133	1
bin	134	1
bin	135	2
bin	136	0
bin	137	0
bin	138	11575
scalar SimphonyDHTNetwork.members[8] 	#packetsInTheNetwork 	8528
statistic SimphonyDHTNetwork.members[8] 	"packets statistics"
field count 9123
field mean 4260.7294749534
field stddev 2458.5318379731
field sum 38870635
field sqrsum 220754083653
field min 0
field max 8527
attr type  int
bin	-INF	0
bin	-46	0
bin	-45	0
bin	-44	0
bin	-43	0
bin	-42	0
bin	-41	0
bin	-40	0
bin	-39	0
bin	-38	0
bin	-37	0
bin	-36	0
bin	-35	0
bin	-34	0
bin	-33	0
bin	-32	0
bin	-31	0
bin	-30	0
bin	-29	0
bin	-28	0
bin	-27	0
bin	-26	0
bin	-25	0
bin	-24	0
bin	-23	0
bin	-22	0
bin	-21	0
bin	-20	0
bin	-19	0
bin	-18	0
bin	-17	0
bin	-16	0
bin	-15	0
bin	-14	0
bin	-13	0
bin	-12	0
bin	-11	0
bin	-10	0
bin	-9	0
bin	-8	0
bin	-7	0
bin	-6	0
bin	-5	0
bin	-4	0
bin	-3	0
bin	-2	0
bin	-1	0
bin	0	1
bin	1	1
bin	2	1
bin	3	1
bin	4	1
bin	5	1
bin	6	1
bin	7	2
bin	8	0
bin	9	0
bin	10	0
bin	11	0
bin	12	0
bin	13	6
bin	14	1
bin	15	1
bin	16	1
bin	17	1
bin	18	1
bin	19	1
bin	20	2
bin	21	0
bin	22	0
bin	23	0
bin	24	0
bin	25	0
bin	26	6
bin	27	1
bin	28	1
bin	29	1
bin	30	1
bin	31	1
bin	32	2
bin	33	0
bin	34	0
bin	35	0
bin	36	0
bin	37	0
bin	38	6
bin	39	1
bin	40	1
bin	41	1
bin	42	1
bin	43	1
bin	44	1
bin	45	1
bin	46	2
bin	47	0
bin	48	0
bin	49	0
bin	50	0
bin	51	0
bin	52	6
bin	53	1
bin	54	1
bin	55	1
bin	56	1
bin	57	1
bin	58	1
bin	59	1
bin	60	1
bin	61	1
bin	62	1
bin	63	1
bin	64	2
bin	65	0
bin	66	0
bin	67	0
bin	68	0
bin	69	0
bin	70	6
bin	71	1
bin	72	1
bin	73	1
bin	74	1
bin	75	2
bin	76	0
bin	77	0
bin	78	0
bin	79	0
bin	80	0
bin	81	6
bin	82	1
bin	83	1
bin	84	1
bin	85	1
bin	86	2
bin	87	0
bin	88	0
bin	89	0
bin	90	0
bin	91	0
bin	92	6
bin	93	1
bin	94	1
bin	95	1
bin	96	1
bin	97	1
bin	98	1
bin	99	1
bin	100	1
bin	101	2
bin	102	0
bin	103	0
bin	104	0
bin	105	0
bin	106	0
bin	107	6
bin	108	1
bin	109	1
bin	110	1
bin	111	2
bin	112	0
bin	113	0
bin	114	0
bin	115	0
bin	116	0
bin	117	6
bin	118	1
bin	119	1
bin	120	1
bin	121	1
bin	122	2
bin	123	0
bin	124	0
bin	125	0
bin	126	0
bin	127	0
bin	128	6
bin	129	1
bin	130	1
bin	131	1
bin	132	1
bin	133	1
bin	134	2
bin	135	0
bin	136	0
bin	137	0
bin	138	8977
scalar SimphonyDHTNetwork.members[9] 	#packetsInTheNetwork 	5255
statistic SimphonyDHTNetwork.members[9] 	"packets statistics"
field count 5536
field mean 2619.1815390173
field stddev 1515.5742800912
field sum 14499789
field sqrsum 50691283149
field min 0
field max 5254
attr type  int
bin	-INF	0
bin	-48	0
bin	-47	0
bin	-46	0
bin	-45	0
bin	-44	0
bin	-43	0
bin	-42	0
bin	-41	0
bin	-40	0
bin	-39	0
bin	-38	0
bin	-37	0
bin	-36	0
bin	-35	0
bin	-34	0
bin	-33	0
bin	-32	0
bin	-31	0
bin	-30	0
bin	-29	0
bin	-28	0
bin	-27	0
bin	-26	0
bin	-25	0
bin	-24	0
bin	-23	0
bin	-22	0
bin	-21	0
bin	-20	0
bin	-19	0
bin	-18	0
bin	-17	0
bin	-16	0
bin	-15	0
bin	-14	0
bin	-13	0
bin	-12	0
bin	-11	0
bin	-10	0
bin	-9	0
bin	-8	0
bin	-7	0
bin	-6	0
bin	-5	0
bin	-4	0
bin	-3	0
bin	-2	0
bin	-1	0
bin	0	1
bin	1	1
bin	2	1
bin	3	1
bin	4	1
bin	5	1
bin	6	1
bin	7	1
bin	8	1
bin	9	1
bin	10	1
bin	11	1
bin	12	1
bin	13	1
bin	14	2
bin	15	0
bin	16	0
bin	17	0
bin	18	0
bin	19	0
bin	20	0
bin	21	7
bin	22	1
bin	23	1
bin	24	1
bin	25	1
bin	26	2
bin	27	0
bin	28	0
bin	29	0
bin	30	0
bin	31	0
bin	32	0
bin	33	7
bin	34	1
bin	35	1
bin	36	1
bin	37	1
bin	38	1
bin	39	1
bin	40	1
bin	41	1
bin	42	1
bin	43	1
bin	44	2
bin	45	0
bin	46	0
bin	47	0
bin	48	0
bin	49	0
bin	50	0
bin	51	7
bin	52	1
bin	53	1
bin	54	1
bin	55	1
bin	56	1
bin	57	1
bin	58	1
bin	59	1
bin	60	1
bin	61	1
bin	62	1
bin	63	1
bin	64	1
bin	65	1
bin	66	1
bin	67	1
bin	68	1
bin	69	1
bin	70	1
bin	71	1
bin	72	1
bin	73	1
bin	74	1
bin	75	1
bin	76	1
bin	77	1
bin	78	1
bin	79	1
bin	80	1
bin	81	2
bin	82	0
bin	83	0
bin	84	0
bin	85	0
bin	86	0
bin	87	0
bin	88	7
bin	89	1
bin	90	1
bin	91	1
bin	92	1
bin	93	1
bin	94	1
bin	95	1
bin	96	1
bin	97	1
bin	98	1
bin	99	2
bin	100	0
bin	101	0
bin	102	0
bin	103	0
bin	104	0
bin	105	0
bin	106	7
bin	107	1
bin	108	1
bin	109	1
bin	110	1
bin	111	1
bin	112	1
bin	113	1
bin	114	1
bin	115	1
bin	116	1
bin	117	1
bin	118	1
bin	119	2
bin	120	0
bin	121	0
bin	122	0
bin	123	0
bin	124	0
bin	125	0
bin	126	7
bin	127	1
bin	128	1
bin	129	1
bin	130	1
bin	131	1
bin	132	1
bin	133	1
bin	134	1
bin	135	1
bin	136	1
bin	137	1
bin	138	2
bin	139	0
bin	140	0
bin	141	0
bin	142	0
bin	143	5390
scalar SimphonyDHTNetwork.members[10] 	#packetsInTheNetwork 	5210
statistic SimphonyDHTNetwork.members[10] 	"packets statistics"
field count 5496
field mean 2610.3318777293
field stddev 1507.5115357802
field sum 14346384
field sqrsum 49936711198
field min 0
field max 5209
attr type  int
bin	-INF	0
bin	-47	0
bin	-46	0
bin	-45	0
bin	-44	0
bin	-43	0
bin	-42	0
bin	-41	0
bin	-40	0
bin	-39	0
bin	-38	0
bin	-37	0
bin	-36	0
bin	-35	0
bin	-34	0
bin	-33	0
bin	-32	0
bin	-31	0
bin	-30	0
bin	-29	0
bin	-28	0
bin	-27	0
bin	-26	0
bin	-25	0
bin	-24	0
bin	-23	0
bin	-22	0
bin	-21	0
bin	-20	0
bin	-19	0
bin	-18	0
bin	-17	0
bin	-16	0
bin	-15	0
bin	-14	0
bin	-13	0
bin	-12	0
bin	-11	0
bin	-10	0
bin	-9	0
bin	-8	0
bin	-7	0
bin	-6	0
bin	-5	0
bin	-4	0
bin	-3	0
bin	-2	0
bin	-1	0
bin	0	1
bin	1	1
bin	2	1
bin	3	1
bin	4	1
bin	5	1
bin	6	2
bin	7	1
bin	8	1
bin	9	1
bin	10	1
bin	11	1
bin	12	1
bin	13	1
bin	14	1
bin	15	1
bin	16	1
bin	17	1
bin	18	1
bin	19	1
bin	20	1
bin	21	1
bin	22	2
bin	23	0
bin	24	0
bin	25	0
bin	26	0
bin	27	0
bin	28	0
bin	29	0
bin	30	8
bin	31	1
bin	32	1
bin	33	1
bin	34	1
bin	35	1
bin	36	1
bin	37	2
bin	38	0
bin	39	0
bin	40	0
bin	41	0
bin	42	0
bin	43	0
bin	44	0
bin	45	8
bin	46	1
bin	47	1
bin	48	1
bin	49	1
bin	50	1
bin	51	1
bin	52	1
bin	53	1
bin	54	1
bin	55	1
bin	56	1
bin	57	1
bin	58	1
bin	59	1
bin	60	1
bin	61	2
bin	62	0
bin	63	0
bin	64	0
bin	65	0
bin	66	0
bin	67	0
bin	68	0
bin	69	8
bin	70	1
bin	71	1
bin	72	1
bin	73	1
bin	74	1
bin	75	1
bin	76	1
bin	77	1
bin	78	1
bin	79	1
bin	80	1
bin	81	1
bin	82	1
bin	83	1
bin	84	2
bin	85	1
bin	86	1
bin	87	1
bin	88	1
bin	89	1
bin	90	1
bin	91	1
bin	92	1
bin	93	1
bin	94	1
bin	95	1
bin	96	1
bin	97	1
bin	98	1
bin	99	1
bin	100	1
bin	101	2
bin	102	0
bin	103	0
bin	104	0
bin	105	0
bin	106	0
bin	107	0
bin	108	0
bin	109	8
bin	110	1
bin	111	1
bin	112	1
bin	113	1
bin	114	1
bin	115	1
bin	116	1
bin	117	1
bin	118	1
bin	119	2
bin	120	0
bin	121	0
bin	122	0
bin	123	0
bin	124	0
bin	125	0
bin	126	0
bin	127	8
bin	128	1
bin	129	1
bin	130	1
bin	131	1
bin	132	1
bin	133	1
bin	134	2
bin	135	1
bin	136	1
bin	137	1
bin	138	1
bin	139	2
bin	140	0
bin	141	5347
scalar SimphonyDHTNetwork.members[11] 	#packetsInTheNetwork 	6813
statistic SimphonyDHTNetwork.members[11] 	"packets statistics"
field count 7210
field mean 3402.0883495146
field stddev 1963.9065462893
field sum 24529057
field sqrsum 111254619647
field min 0
field max 6812
attr type  int
bin	-INF	0
bin	-49	0
bin	-48	0
bin	-47	0
bin	-46	0
bin	-45	0
bin	-44	0
bin	-43	0
bin	-42	0
bin	-41	0
bin	-40	0
bin	-39	0
bin	-38	0
bin	-37	0
bin	-36	0
bin	-35	0
bin	-34	0
bin	-33	0
bin	-32	0
bin	-31	0
bin	-30	0
bin	-29	0
bin	-28	0
bin	-27	0
bin	-26	0
bin	-25	0
bin	-24	0
bin	-23	0
bin	-22	0
bin	-21	0
bin	-20	0
bin	-19	0
bin	-18	0
bin	-17	0
bin	-16	0
bin	-15	0
bin	-14	0
bin	-13	0
bin	-12	0
bin	-11	0
bin	-10	0
bin	-9	0
bin	-8	0
bin	-7	0
bin	-6	0
bin	-5	0
bin	-4	0
bin	-3	0
bin	-2	0
bin	-1	0
bin	0	1
bin	1	1
bin	2	1
bin	3	1
bin	4	1
bin	5	1
bin	6	2
bin	7	0
bin	8	0
bin	9	0
bin	10	0
bin	11	0
bin	12	0
bin	13	0
bin	14	8
bin	15	1
bin	16	1
bin	17	1
bin	18	1
bin	19	1
bin	20	1
bin	21	1
bin	22	2
bin	23	0
bin	24	0
bin	25	0
bin	26	0
bin	27	0
bin	28	0
bin	29	0
bin	30	8
bin	31	1
bin	32	1
bin	33	1
bin	34	1
bin	35	1
bin	36	1
bin	37	1
bin	38	1
bin	39	1
bin	40	1
bin	41	1
bin	42	2
bin	43	0
bin	44	0
bin	45	0
bin	46	0
bin	47	0
bin	48	0
bin	49	0
bin	50	8
bin	51	1
bin	52	1
bin	53	1
bin	54	1
bin	55	1
bin	56	1
bin	57	1
bin	58	1
bin	59	1
bin	60	1
bin	61	1
bin	62	1
bin	63	1
bin	64	1
bin	65	1
bin	66	1
bin	67	1
bin	68	1
bin	69	1
bin	70	1
bin	71	1
bin	72	1
bin	73	1
bin	74	1
bin	75	1
bin	76	1
bin	77	1
bin	78	1
bin	79	1
bin	80	1
bin	81	1
bin	82	1
bin	83	1
bin	84	1
bin	85	1
bin	86	1
bin	87	1
bin	88	1
bin	89	2
bin	90	0
bin	91	0
bin	92	0
bin	93	0
bin	94	0
bin	95	0
bin	96	0
bin	97	8
bin	98	1
bin	99	1
bin	100	1
bin	101	1
bin	102	2
bin	103	1
bin	104	1
bin	105	1
bin	106	2
bin	107	0
bin	108	0
bin	109	0
bin	110	0
bin	111	0
bin	112	0
bin	113	0
bin	114	8
bin	115	1
bin	116	1
bin	117	1
bin	118	1
bin	119	1
bin	120	1
bin	121	1
bin	122	1
bin	123	1
bin	124	1
bin	125	1
bin	126	1
bin	127	1
bin	128	2
bin	129	0
bin	130	0
bin	131	0
bin	132	0
bin	133	0
bin	134	0
bin	135	0
bin	136	8
bin	137	1
bin	138	1
bin	139	1
bin	140	1
bin	141	1
bin	142	1
bin	143	1
bin	144	1
bin	145	1
bin	146	7057
scalar SimphonyDHTNetwork.members[12] 	#packetsInTheNetwork 	6917
statistic SimphonyDHTNetwork.members[12] 	"packets statistics"
field count 7207
field mean 3450.3814347162
field stddev 1997.3093542903
field sum 24866899
field sqrsum 114546783645
field min 0
field max 6916
attr type  int
bin	-INF	0
bin	-47	0
bin	-46	0
bin	-45	0
bin	-44	0
bin	-43	0
bin	-42	0
bin	-41	0
bin	-40	0
bin	-39	0
bin	-38	0
bin	-37	0
bin	-36	0
bin	-35	0
bin	-34	0
bin	-33	0
bin	-32	0
bin	-31	0
bin	-30	0
bin	-29	0
bin	-28	0
bin	-27	0
bin	-26	0
bin	-25	0
bin	-24	0
bin	-23	0
bin	-22	0
bin	-21	0
bin	-20	0
bin	-19	0
bin	-18	0
bin	-17	0
bin	-16	0
bin	-15	0
bin	-14	0
bin	-13	0
bin	-12	0
bin	-11	0
bin	-10	0
bin	-9	0
bin	-8	0
bin	-7	0
bin	-6	0
bin	-5	0
bin	-4	0
bin	-3	0
bin	-2	0
bin	-1	0
bin	0	1
bin	1	1
bin	2	1
bin	3	1
bin	4	1
bin	5	1
bin	6	1
bin	7	2
bin	8	0
bin	9	0
bin	10	0
bin	11	0
bin	12	0
bin	13	0
bin	14	0
bin	15	8
bin	16	1
bin	17	1
bin	18	1
bin	19	1
bin	20	2
bin	21	0
bin	22	0
bin	23	0
bin	24	0
bin	25	0
bin	26	0
bin	27	0
bin	28	8
bin	29	1
bin	30	1
bin	31	1
bin	32	1
bin	33	1
bin	34	1
bin	35	1
bin	36	2
bin	37	0
bin	38	0
bin	39	0
bin	40	0
bin	41	0
bin	42	0
bin	43	0
bin	44	8
bin	45	1
bin	46	1
bin	47	1
bin	48	1
bin	49	1
bin	50	1
bin	51	1
bin	52	2
bin	53	0
bin	54	0
bin	55	0
bin	56	0
bin	57	0
bin	58	0
bin	59	0
bin	60	8
bin	61	1
bin	62	1
bin	63	1
bin	64	1
bin	65	1
bin	66	1
bin	67	1
bin	68	1
bin	69	1
bin	70	2
bin	71	0
bin	72	0
bin	73	0
bin	74	0
bin	75	0
bin	76	0
bin	77	0
bin	78	8
bin	79	1
bin	80	1
bin	81	1
bin	82	1
bin	83	2
bin	84	0
bin	85	0
bin	86	0
bin	87	0
bin	88	0
bin	89	0
bin	90	0
bin	91	8
bin	92	1
bin	93	1
bin	94	1
bin	95	1
bin	96	1
bin	97	1
bin	98	1
bin	99	2
bin	100	0
bin	101	0
bin	102	0
bin	103	0
bin	104	0
bin	105	0
bin	106	0
bin	107	8
bin	108	1
bin	109	1
bin	110	1
bin	111	1
bin	112	1
bin	113	1
bin	114	1
bin	115	1
bin	116	1
bin	117	1
bin	118	1
bin	119	1
bin	120	1
bin	121	1
bin	122	1
bin	123	1
bin	124	1
bin	125	1
bin	126	2
bin	127	0
bin	128	0
bin	129	0
bin	130	0
bin	131	0
bin	132	0
bin	133	0
bin	134	8
bin	135	1
bin	136	1
bin	137	1
bin	138	1
bin	139	1
bin	140	7059
scalar SimphonyDHTNetwork.members[13] 	#packetsInTheNetwork 	9198
statistic SimphonyDHTNetwork.members[13] 	"packets statistics"
field count 9712
field mean 4607.5265650741
field stddev 2647.1376468678
field sum 44748298
field sqrsum 274227228390
field min 0
field max 9197
attr type  int
bin	-INF	0
bin	-48	0
bin	-47	0
bin	-46	0
bin	-45	0
bin	-44	0
bin	-43	0
bin	-42	0
bin	-41	0
bin	-40	0
bin	-39	0
bin	-38	0
bin	-37	0
bin	-36	0
bin	-35	0
bin	-34	0
bin	-33	0
bin	-32	0
bin	-31	0
bin	-30	0
bin	-29	0
bin	-28	0
bin	-27	0
bin	-26	0
bin	-25	0
bin	-24	0
bin	-23	0
bin	-22	0
bin	-21	0
bin	-20	0
bin	-19	0
bin	-18	0
bin	-17	0
bin	-16	0
bin	-15	0
bin	-14	0
bin	-13	0
bin	-12	0
bin	-11	0
bin	-10	0
bin	-9	0
bin	-8	0
bin	-7	0
bin	-6	0
bin	-5	0
bin	-4	0
bin	-3	0
bin	-2	0
bin	-1	0
bin	0	1
bin	1	1
bin	2	2
bin	3	0
bin	4	0
bin	5	0
bin	6	0
bin	7	0
bin	8	0
bin	9	0
bin	10	8
bin	11	1
bin	12	1
bin	13	1
bin	14	1
bin	15	1
bin	16	2
bin	17	0
bin	18	0
bin	19	0
bin	20	0
bin	21	0
bin	22	0
bin	23	0
bin	24	8
bin	25	1
bin	26	1
bin	27	1
bin	28	1
bin	29	1
bin	30	1
bin	31	1
bin	32	2
bin	33	1
bin	34	1
bin	35	1
bin	36	1
bin	37	1
bin	38	1
bin	39	1
bin	40	1
bin	41	1
bin	42	1
bin	43	1
bin	44	1
bin	45	1
bin	46	1
bin	47	1
bin	48	1
bin	49	1
bin	50	1
bin	51	1
bin	52	1
bin	53	1
bin	54	1
bin	55	1
bin	56	1
bin	57	1
bin	58	1
bin	59	1
bin	60	1
bin	61	1
bin	62	1
bin	63	1
bin	64	2
bin	65	0
bin	66	0
bin	67	0
bin	68	0
bin	69	0
bin	70	0
bin	71	0
bin	72	8
bin	73	1
bin	74	1
bin	75	1
bin	76	1
bin	77	1
bin	78	1
bin	79	1
bin	80	1
bin	81	1
bin	82	1
bin	83	1
bin	84	1
bin	85	1
bin	86	1
bin	87	1
bin	88	1
bin	89	1
bin	90	1
bin	91	1
bin	92	1
bin	93	1
bin	94	1
bin	95	1
bin	96	1
bin	97	1
bin	98	1
bin	99	1
bin	100	1
bin	101	1
bin	102	1
bin	103	1
bin	104	1
bin	105	1
bin	106	1
bin	107	1
bin	108	1
bin	109	1
bin	110	1
bin	111	1
bin	112	1
bin	113	1
bin	114	1
bin	115	1
bin	116	1
bin	117	1
bin	118	1
bin	119	1
bin	120	1
bin	121	1
bin	122	1
bin	123	1
bin	124	1
bin	125	1
bin	126	1
bin	127	1
bin	128	2
bin	129	0
bin	130	0
bin	131	0
bin	132	0
bin	133	0
bin	134	0
bin	135	0
bin	136	8
bin	137	1
bin	138	1
bin	139	1
bin	140	1
bin	141	1
bin	142	1
bin	143	9564
scalar SimphonyDHTNetwork.members[14] 	#packetsInTheNetwork 	6321
statistic SimphonyDHTNetwork.members[14] 	"packets statistics"
field count 6568
field mean 3155.2327953715
field stddev 1827.1396740858
field sum 20723569
field sqrsum 87311216011
field min 0
field max 6320
attr type  int
bin	-INF	0
bin	-48	0
bin	-47	0
bin	-46	0
bin	-45	0
bin	-44	0
bin	-43	0
bin	-42	0
bin	-41	0
bin	-40	0
bin	-39	0
bin	-38	0
bin	-37	0
bin	-36	0
bin	-35	0
bin	-34	0
bin	-33	0
bin	-32	0
bin	-31	0
bin	-30	0
bin	-29	0
bin	-28	0
bin	-27	0
bin	-26	0
bin	-25	0
bin	-24	0
bin	-23	0
bin	-22	0
bin	-21	0
bin	-20	0
bin	-19	0
bin	-18	0
bin	-17	0
bin	-16	0
bin	-15	0
bin	-14	0
bin	-13	0
bin	-12	0
bin	-11	0
bin	-10	0
bin	-9	0
bin	-8	0
bin	-7	0
bin	-6	0
bin	-5	0
bin	-4	0
bin	-3	0
bin	-2	0
bin	-1	0
bin	0	1
bin	1	1
bin	2	1
bin	3	1
bin	4	1
bin	5	2
bin	6	0
bin	7	0
bin	8	0
bin	9	0
bin	10	0
bin	11	0
bin	12	0
bin	13	8
bin	14	1
bin	15	1
bin	16	1
bin	17	1
bin	18	1
bin	19	1
bin	20	2
bin	21	0
bin	22	0
bin	23	0
bin	24	0
bin	25	0
bin	26	0
bin	27	0
bin	28	8
bin	29	1
bin	30	1
bin	31	1
bin	32	1
bin	33	1
bin	34	1
bin	35	1
bin	36	1
bin	37	1
bin	38	1
bin	39	1
bin	40	1
bin	41	1
bin	42	1
bin	43	1
bin	44	1
bin	45	2
bin	46	0
bin	47	0
bin	48	0
bin	49	0
bin	50	0
bin	51	0
bin	52	0
bin	53	8
bin	54	1
bin	55	1
bin	56	1
bin	57	1
bin	58	1
bin	59	1
bin	60	1
bin	61	1
bin	62	1
bin	63	1
bin	64	1
bin	65	1
bin	66	1
bin	67	1
bin	68	1
bin	69	1
bin	70	1
bin	71	1
bin	72	1
bin	73	1
bin	74	1
bin	75	1
bin	76	1
bin	77	1
bin	78	1
bin	79	1
bin	80	1
bin	81	1
bin	82	1
bin	83	1
bin	84	2
bin	85	0
bin	86	0
bin	87	0
bin	88	0
bin	89	0
bin	90	0
bin	91	0
bin	92	8
bin	93	1
bin	94	1
bin	95	1
bin	96	1
bin	97	1
bin	98	1
bin	99	1
bin	100	2
bin	101	0
bin	102	0
bin	103	0
bin	104	0
bin	105	0
bin	106	0
bin	107	0
bin	108	8
bin	109	1
bin	110	1
bin	111	1
bin	112	1
bin	113	2
bin	114	0
bin	115	0
bin	116	0
bin	117	0
bin	118	0
bin	119	0
bin	120	0
bin	121	8
bin	122	1
bin	123	1
bin	124	1
bin	125	1
bin	126	2
bin	127	0
bin	128	0
bin	129	0
bin	130	0
bin	131	0
bin	132	0
bin	133	0
bin	134	8
bin	135	1
bin	136	1
bin	137	1
bin	138	1
bin	139	1
bin	140	1
bin	141	1
bin	142	1
bin	143	6418
scalar SimphonyDHTNetwork.members[15] 	#packetsInTheNetwork 	8048
statistic SimphonyDHTNetwork.members[15] 	"packets statistics"
field count 8470
field mean 4009.7133412043
field stddev 2319.3872421152
field sum 33962272
field sqrsum 181738444884
field min 0
field max 8047
attr type  int
bin	-INF	0
bin	-47	0
bin	-46	0
bin	-45	0
bin	-44	0
bin	-43	0
bin	-42	0
bin	-41	0
bin	-40	0
bin	-39	0
bin	-38	0
bin	-37	0
bin	-36	0
bin	-35	0
bin	-34	0
bin	-33	0
bin	-32	0
bin	-31	0
bin	-30	0
bin	-29	0
bin	-28	0
bin	-27	0
bin	-26	0
bin	-25	0
bin	-24	0
bin	-23	0
bin	-22	0
bin	-21	0
bin	-20	0
bin	-19	0
bin	-18	0
bin	-17	0
bin	-16	0
bin	-15	0
bin	-14	0
bin	-13	0
bin	-12	0
bin	-11	0
bin	-10	0
bin	-9	0
bin	-8	0
bin	-7	0
bin	-6	0
bin	-5	0
bin	-4	0
bin	-3	0
bin	-2	0
bin	-1	0
bin	0	1
bin	1	1
bin	2	1
bin	3	1
bin	4	2
bin	5	0
bin	6	0
bin	7	0
bin	8	0
bin	9	0
bin	10	0
bin	11	0
bin	12	8
bin	13	1
bin	14	1
bin	15	1
bin	16	1
bin	17	1
bin	18	2
bin	19	0
bin	20	0
bin	21	0
bin	22	0
bin	23	0
bin	24	0
bin	25	0
bin	26	8
bin	27	1
bin	28	1
bin	29	1
bin	30	1
bin	31	1
bin	32	1
bin	33	1
bin	34	1
bin	35	1
bin	36	1
bin	37	1
bin	38	1
bin	39	1
bin	40	1
bin	41	1
bin	42	1
bin	43	1
bin	44	1
bin	45	1
bin	46	1
bin	47	1
bin	48	1
bin	49	1
bin	50	1
bin	51	1
bin	52	2
bin	53	1
bin	54	1
bin	55	1
bin	56	2
bin	57	1
bin	58	1
bin	59	1
bin	60	1
bin	61	1
bin	62	1
bin	63	1
bin	64	1
bin	65	2
bin	66	0
bin	67	0
bin	68	0
bin	69	0
bin	70	0
bin	71	0
bin	72	0
bin	73	8
bin	74	1
bin	75	1
bin	76	1
bin	77	1
bin	78	2
bin	79	0
bin	80	0
bin	81	0
bin	82	0
bin	83	0
bin	84	0
bin	85	0
bin	86	8
bin	87	1
bin	88	1
bin	89	1
bin	90	1
bin	91	1
bin	92	1
bin	93	1
bin	94	1
bin	95	1
bin	96	1
bin	97	1
bin	98	1
bin	99	1
bin	100	1
bin	101	1
bin	102	1
bin	103	1
bin	104	1
bin	105	1
bin	106	1
bin	107	1
bin	108	2
bin	109	1
bin	110	1
bin	111	1
bin	112	1
bin	113	1
bin	114	1
bin	115	1
bin	116	1
bin	117	1
bin	118	1
bin	119	1
bin	120	1
bin	121	1
bin	122	1
bin	123	1
bin	124	1
bin	125	1
bin	126	1
bin	127	2
bin	128	0
bin	129	0
bin	130	0
bin	131	0
bin	132	0
bin	133	0
bin	134	0
bin	135	8
bin	136	1
bin	137	1
bin	138	1
bin	139	1
bin	140	8322
scalar SimphonyDHTNetwork.members[16] 	#packetsInTheNetwork 	5585
statistic SimphonyDHTNetwork.members[16] 	"packets statistics"
field count 5807
field mean 2794.6805579473
field stddev 1615.0685085667
field sum 16228710
field sqrsum 60498699462
field min 0
field max 5584
attr type  int
bin	-INF	0
bin	-47	0
bin	-46	0
bin	-45	0
bin	-44	0
bin	-43	0
bin	-42	0
bin	-41	0
bin	-40	0
bin	-39	0
bin	-38	0
bin	-37	0
bin	-36	0
bin	-35	0
bin	-34	0
bin	-33	0
bin	-32	0
bin	-31	0
bin	-30	0
bin	-29	0
bin	-28	0
bin	-27	0
bin	-26	0
bin	-25	0
bin	-24	0
bin	-23	0
bin	-22	0
bin	-21	0
bin	-20	0
bin	-19	0
bin	-18	0
bin	-17	0
bin	-16	0
bin	-15	0
bin	-14	0
bin	-13	0
bin	-12	0
bin	-11	0
bin	-10	0
bin	-9	0
bin	-8	0
bin	-7	0
bin	-6	0
bin	-5	0
bin	-4	0
bin	-3	0
bin	-2	0
bin	-1	0
bin	0	1
bin	1	1
bin	2	2
bin	3	0
bin	4	0
bin	5	0
bin	6	0
bin	7	0
bin	8	0
bin	9	0
bin	10	8
bin	11	1
bin	12	1
bin	13	1
bin	14	1
bin	15	2
bin	16	0
bin	17	0
bin	18	0
bin	19	0
bin	20	0
bin	21	0
bin	22	0
bin	23	8
bin	24	1
bin	25	1
bin	26	1
bin	27	1
bin	28	1
bin	29	1
bin	30	1
bin	31	1
bin	32	1
bin	33	1
bin	34	1
bin	35	1
bin	36	1
bin	37	1
bin	38	1
bin	39	1
bin	40	1
bin	41	1
bin	42	1
bin	43	1
bin	44	2
bin	45	0
bin	46	0
bin	47	0
bin	48	0
bin	49	0
bin	50	0
bin	51	0
bin	52	8
bin	53	1
bin	54	1
bin	55	1
bin	56	1
bin	57	1
bin	58	2
bin	59	0
bin	60	0
bin	61	0
bin	62	0
bin	63	0
bin	64	0
bin	65	0
bin	66	8
bin	67	1
bin	68	1
bin	69	1
bin	70	1
bin	71	1
bin	72	1
bin	73	1
bin	74	2
bin	75	0
bin	76	0
bin	77	0
bin	78	0
bin	79	0
bin	80	0
bin	81	0
bin	82	8
bin	83	1
bin	84	1
bin	85	1
bin	86	1
bin	87	1
bin	88	1
bin	89	1
bin	90	1
bin	91	1
bin	92	1
bin	93	1
bin	94	1
bin	95	1
bin	96	1
bin	97	1
bin	98	1
bin	99	1
bin	100	1
bin	101	1
bin	102	1
bin	103	1
bin	104	1
bin	105	1
bin	106	1
bin	107	1
bin	108	1
bin	109	1
bin	110	1
bin	111	1
bin	112	1
bin	113	2
bin	114	0
bin	115	0
bin	116	0
bin	117	0
bin	118	0
bin	119	0
bin	120	0
bin	121	8
bin	122	1
bin	123	1
bin	124	1
bin	125	1
bin	126	1
bin	127	2
bin	128	1
bin	129	1
bin	130	2
bin	131	0
bin	132	0
bin	133	0
bin	134	0
bin	135	0
bin	136	0
bin	137	0
bin	138	8
bin	139	1
bin	140	1
bin	141	5658
scalar SimphonyDHTNetwork.members[17] 	#packetsInTheNetwork 	7834
statistic SimphonyDHTNetwork.members[17] 	"packets statistics"
field count 8306
field mean 3931.8876715627
field stddev 2262.0786090979
field sum 32658259
field sqrsum 170905287895
field min 0
field max 7833
attr type  int
bin	-INF	0
bin	-48	0
bin	-47	0
bin	-46	0
bin	-45	0
bin	-44	0
bin	-43	0
bin	-42	0
bin	-41	0
bin	-40	0
bin	-39	0
bin	-38	0
bin	-37	0
bin	-36	0
bin	-35	0
bin	-34	0
bin	-33	0
bin	-32	0
bin	-31	0
bin	-30	0
bin	-29	0
bin	-28	0
bin	-27	0
bin	-26	0
bin	-25	0
bin	-24	0
bin	-23	0
bin	-22	0
bin	-21	0
bin	-20	0
bin	-19	0
bin	-18	0
bin	-17	0
bin	-16	0
bin	-15	0
bin	-14	0
bin	-13	0
bin	-12	0
bin	-11	0
bin	-10	0
bin	-9	0
bin	-8	0
bin	-7	0
bin	-6	0
bin	-5	0
bin	-4	0
bin	-3	0
bin	-2	0
bin	-1	0
bin	0	1
bin	1	1
bin	2	1
bin	3	1
bin	4	1
bin	5	1
bin	6	1
bin	7	1
bin	8	1
bin	9	1
bin	10	1
bin	11	1
bin	12	1
bin	13	1
bin	14	1
bin	15	1
bin	16	1
bin	17	1
bin	18	1
bin	19	1
bin	20	2
bin	21	1
bin	22	1
bin	23	1
bin	24	1
bin	25	1
bin	26	1
bin	27	1
bin	28	1
bin	29	2
bin	30	0
bin	31	0
bin	32	0
bin	33	0
bin	34	0
bin	35	0
bin	36	0
bin	37	8
bin	38	1
bin	39	1
bin	40	1
bin	41	1
bin	42	1
bin	43	1
bin	44	1
bin	45	1
bin	46	1
bin	47	1
bin	48	1
bin	49	1
bin	50	1
bin	51	1
bin	52	1
bin	53	1
bin	54	2
bin	55	0
bin	56	0
bin	57	0
bin	58	0
bin	59	0
bin	60	0
bin	61	0
bin	62	8
bin	63	1
bin	64	1
bin	65	1
bin	66	1
bin	67	1
bin	68	1
bin	69	1
bin	70	1
bin	71	1
bin	72	1
bin	73	1
bin	74	1
bin	75	1
bin	76	1
bin	77	1
bin	78	1
bin	79	1
bin	80	1
bin	81	1
bin	82	1
bin	83	1
bin	84	2
bin	85	0
bin	86	0
bin	87	0
bin	88	0
bin	89	0
bin	90	0
bin	91	0
bin	92	8
bin	93	1
bin	94	1
bin	95	1
bin	96	1
bin	97	2
bin	98	0
bin	99	0
bin	100	0
bin	101	0
bin	102	0
bin	103	0
bin	104	0
bin	105	8
bin	106	1
bin	107	1
bin	108	1
bin	109	1
bin	110	1
bin	111	1
bin	112	1
bin	113	1
bin	114	2
bin	115	0
bin	116	0
bin	117	0
bin	118	0
bin	119	0
bin	120	0
bin	121	0
bin	122	8
bin	123	1
bin	124	1
bin	125	1
bin	126	1
bin	127	1
bin	128	1
bin	129	1
bin	130	1
bin	131	1
bin	132	1
bin	133	1
bin	134	1
bin	135	1
bin	136	1
bin	137	1
bin	138	1
bin	139	1
bin	140	1
bin	141	1
bin	142	1
bin	143	8157
scalar SimphonyDHTNetwork.members[18] 	#packetsInTheNetwork 	8500
statistic SimphonyDHTNetwork.members[18] 	"packets statistics"
field count 9082
field mean 4258.3858181017
field stddev 2451.2085661719
field sum 38674660
field sqrsum 219254116876
field min 0
field max 8499
attr type  int
bin	-INF	0
bin	-47	0
bin	-46	0
bin	-45	0
bin	-44	0
bin	-43	0
bin	-42	0
bin	-41	0
bin	-40	0
bin	-39	0
bin	-38	0
bin	-37	0
bin	-36	0
bin	-35	0
bin	-34	0
bin	-33	0
bin	-32	0
bin	-31	0
bin	-30	0
bin	-29	0
bin	-28	0
bin	-27	0
bin	-26	0
bin	-25	0
bin	-24	0
bin	-23	0
bin	-22	0
bin	-21	0
bin	-20	0
bin	-19	0
bin	-18	0
bin	-17	0
bin	-16	0
bin	-15	0
bin	-14	0
bin	-13	0
bin	-12	0
bin	-11	0
bin	-10	0
bin	-9	0
bin	-8	0
bin	-7	0
bin	-6	0
bin	-5	0
bin	-4	0
bin	-3	0
bin	-2	0
bin	-1	0
bin	0	1
bin	1	1
bin	2	1
bin	3	1
bin	4	2
bin	5	0
bin	6	0
bin	7	0
bin	8	0
bin	9	0
bin	10	0
bin	11	0
bin	12	8
bin	13	1
bin	14	1
bin	15	1
bin	16	1
bin	17	1
bin	18	1
bin	19	1
bin	20	1
bin	21	1
bin	22	1
bin	23	1
bin	24	1
bin	25	1
bin	26	1
bin	27	1
bin	28	1
bin	29	1
bin	30	2
bin	31	0
bin	32	0
bin	33	0
bin	34	0
bin	35	0
bin	36	0
bin	37	0
bin	38	8
bin	39	1
bin	40	1
bin	41	1
bin	42	1
bin	43	1
bin	44	1
bin	45	1
bin	46	1
bin	47	1
bin	48	2
bin	49	0
bin	50	0
bin	51	0
bin	52	0
bin	53	0
bin	54	0
bin	55	0
bin	56	8
bin	57	1
bin	58	1
bin	59	1
bin	60	1
bin	61	2
bin	62	0
bin	63	0
bin	64	0
bin	65	0
bin	66	0
bin	67	0
bin	68	0
bin	69	8
bin	70	1
bin	71	1
bin	72	1
bin	73	2
bin	74	0
bin	75	0
bin	76	0
bin	77	0
bin	78	0
bin	79	0
bin	80	0
bin	81	8
bin	82	1
bin	83	1
bin	84	1
bin	85	1
bin	86	2
bin	87	0
bin	88	0
bin	89	0
bin	90	0
bin	91	0
bin	92	0
bin	93	0
bin	94	8
bin	95	1
bin	96	1
bin	97	1
bin	98	1
bin	99	2
bin	100	0
bin	101	0
bin	102	0
bin	103	0
bin	104	0
bin	105	0
bin	106	0
bin	107	8
bin	108	1
bin	109	1
bin	110	1
bin	111	1
bin	112	1
bin	113	2
bin	114	0
bin	115	0
bin	116	0
bin	117	0
bin	118	0
bin	119	0
bin	120	0
bin	121	8
bin	122	1
bin	123	1
bin	124	1
bin	125	1
bin	126	1
bin	127	1
bin	128	1
bin	129	2
bin	130	0
bin	131	0
bin	132	0
bin	133	0
bin	134	0
bin	135	0
bin	136	0
bin	137	8
bin	138	1
bin	139	1
bin	140	1
bin	141	8932
scalar SimphonyDHTNetwork.members[19] 	#packetsInTheNetwork 	3682
statistic SimphonyDHTNetwork.members[19] 	"packets statistics"
field count 3828
field mean 1828.1964472309
field stddev 1061.7296861179
field sum 6998336
field sqrsum 17108395020
field min 0
field max 3681
attr type  int
bin	-INF	0
bin	-48	0
bin	-47	0
bin	-46	0
bin	-45	0
bin	-44	0
bin	-43	0
bin	-42	0
bin	-41	0
bin	-40	0
bin	-39	0
bin	-38	0
bin	-37	0
bin	-36	0
bin	-35	0
bin	-34	0
bin	-33	0
bin	-32	0
bin	-31	0
bin	-30	0
bin	-29	0
bin	-28	0
bin	-27	0
bin	-26	0
bin	-25	0
bin	-24	0
bin	-23	0
bin	-22	0
bin	-21	0
bin	-20	0
bin	-19	0
bin	-18	0
bin	-17	0
bin	-16	0
bin	-15	0
bin	-14	0
bin	-13	0
bin	-12	0
bin	-11	0
bin	-10	0
bin	-9	0
bin	-8	0
bin	-7	0
bin	-6	0
bin	-5	0
bin	-4	0
bin	-3	0
bin	-2	0
bin	-1	0
bin	0	1
bin	1	1
bin	2	1
bin	3	1
bin	4	1
bin	5	1
bin	6	1
bin	7	1
bin	8	1
bin	9	1
bin	10	1
bin	11	1
bin	12	2
bin	13	0
bin	14	0
bin	15	0
bin	16	0
bin	17	0
bin	18	0
bin	19	0
bin	20	8
bin	21	1
bin	22	1
bin	23	1
bin	24	1
bin	25	1
bin	26	1
bin	27	1
bin	28	1
bin	29	1
bin	30	1
bin	31	2
bin	32	0
bin	33	0
bin	34	0
bin	35	0
bin	36	0
bin	37	0
bin	38	0
bin	39	8
bin	40	1
bin	41	1
bin	42	1
bin	43	1
bin	44	2
bin	45	0
bin	46	0
bin	47	0
bin	48	0
bin	49	0
bin	50	0
bin	51	0
bin	52	8
bin	53	1
bin	54	1
bin	55	1
bin	56	1
bin	57	1
bin	58	1
bin	59	1
bin	60	1
bin	61	1
bin	62	1
bin	63	1
bin	64	1
bin	65	1
bin	66	1
bin	67	1
bin	68	1
bin	69	1
bin	70	1
bin	71	1
bin	72	1
bin	73	1
bin	74	1
bin	75	1
bin	76	2
bin	77	0
bin	78	0
bin	79	0
bin	80	0
bin	81	0
bin	82	0
bin	83	0
bin	84	8
bin	85	1
bin	86	1
bin	87	1
bin	88	1
bin	89	1
bin	90	1
bin	91	1
bin	92	1
bin	93	1
bin	94	1
bin	95	1
bin	96	1
bin	97	1
bin	98	1
bin	99	1
bin	100	1
bin	101	1
bin	102	1
bin	103	1
bin	104	1
bin	105	1
bin	106	1
bin	107	1
bin	108	1
bin	109	1
bin	110	2
bin	111	0
bin	112	0
bin	113	0
bin	114	0
bin	115	0
bin	116	0
bin	117	0
bin	118	8
bin	119	1
bin	120	1
bin	121	1
bin	122	1
bin	123	1
bin	124	2
bin	125	0
bin	126	0
bin	127	0
bin	128	0
bin	129	0
bin	130	0
bin	131	0
bin	132	8
bin	133	1
bin	134	1
bin	135	1
bin	136	1
bin	137	1
bin	138	1
bin	139	1
bin	140	1
bin	141	1
bin	142	1
bin	143	3679
scalar SimphonyDHTNetwork.members[20] 	#packetsInTheNetwork 	3826
statistic SimphonyDHTNetwork.members[20] 	"packets statistics"
field count 3980
field mean 1905.706281407
field stddev 1106.2790661105
field sum 7584711
field sqrsum 19323943963
field min 0
field max 3825
attr type  int
bin	-INF	0
bin	-47	0
bin	-46	0
bin	-45	0
bin	-44	0
bin	-43	0
bin	-42	0
bin	-41	0
bin	-40	0
bin	-39	0
bin	-38	0
bin	-37	0
bin	-36	0
bin	-35	0
bin	-34	0
bin	-33	0
bin	-32	0
bin	-31	0
bin	-30	0
bin	-29	0
bin	-28	0
bin	-27	0
bin	-26	0
bin	-25	0
bin	-24	0
bin	-23	0
bin	-22	0
bin	-21	0
bin	-20	0
bin	-19	0
bin	-18	0
bin	-17	0
bin	-16	0
bin	-15	0
bin	-14	0
bin	-13	0
bin	-12	0
bin	-11	0
bin	-10	0
bin	-9	0
bin	-8	0
bin	-7	0
bin	-6	0
bin	-5	0
bin	-4	0
bin	-3	0
bin	-2	0
bin	-1	0
bin	0	1
bin	1	1
bin	2	1
bin	3	1
bin	4	1
bin	5	1
bin	6	1
bin	7	1
bin	8	1
bin	9	1
bin	10	1
bin	11	1
bin	12	1
bin	13	1
bin	14	1
bin	15	1
bin	16	1
bin	17	2
bin	18	0
bin	19	0
bin	20	0
bin	21	0
bin	22	0
bin	23	0
bin	24	0
bin	25	8
bin	26	1
bin	27	1
bin	28	1
bin	29	1
bin	30	1
bin	31	1
bin	32	1
bin	33	1
bin	34	1
bin	35	1
bin	36	1
bin	37	2
bin	38	0
bin	39	0
bin	40	0
bin	41	0
bin	42	0
bin	43	0
bin	44	0
bin	45	8
bin	46	1
bin	47	1
bin	48	1
bin	49	1
bin	50	1
bin	51	1
bin	52	2
bin	53	0
bin	54	0
bin	55	0
bin	56	0
bin	57	0
bin	58	0
bin	59	0
bin	60	8
bin	61	1
bin	62	1
bin	63	1
bin	64	1
bin	65	1
bin	66	1
bin	67	1
bin	68	1
bin	69	1
bin	70	1
bin	71	1
bin	72	1
bin	73	2
bin	74	0
bin	75	0
bin	76	0
bin	77	0
bin	78	0
bin	79	0
bin	80	0
bin	81	8
bin	82	1
bin	83	1
bin	84	1
bin	85	1
bin	86	1
bin	87	1
bin	88	1
bin	89	2
bin	90	1
bin	91	1
bin	92	1
bin	93	1
bin	94	1
bin	95	2
bin	96	0
bin	97	0
bin	98	0
bin	99	0
bin	100	0
bin	101	0
bin	102	0
bin	103	8
bin	104	1
bin	105	1
bin	106	1
bin	107	1
bin	108	2
bin	109	0
bin	110	0
bin	111	0
bin	112	0
bin	113	0
bin	114	0
bin	115	0
bin	116	8
bin	117	1
bin	118	1
bin	119	1
bin	120	1
bin	121	1
bin	122	1
bin	123	1
bin	124	1
bin	125	1
bin	126	1
bin	127	1
bin	128	1
bin	129	1
bin	130	2
bin	131	0
bin	132	0
bin	133	0
bin	134	0
bin	135	0
bin	136	0
bin	137	0
bin	138	8
bin	139	1
bin	140	1
bin	141	3831
scalar SimphonyDHTNetwork.members[21] 	#packetsInTheNetwork 	4919
statistic SimphonyDHTNetwork.members[21] 	"packets statistics"
field count 5207
field mean 2457.2784712887
field stddev 1416.2927091794
field sum 12795049
field sqrsum 41883635955
field min 0
field max 4918
attr type  int
bin	-INF	0
bin	-47	0
bin	-46	0
bin	-45	0
bin	-44	0
bin	-43	0
bin	-42	0
bin	-41	0
bin	-40	0
bin	-39	0
bin	-38	0
bin	-37	0
bin	-36	0
bin	-35	0
bin	-34	0
bin	-33	0
bin	-32	0
bin	-31	0
bin	-30	0
bin	-29	0
bin	-28	0
bin	-27	0
bin	-26	0
bin	-25	0
bin	-24	0
bin	-23	0
bin	-22	0
bin	-21	0
bin	-20	0
bin	-19	0
bin	-18	0
bin	-17	0
bin	-16	0
bin	-15	0
bin	-14	0
bin	-13	0
bin	-12	0
bin	-11	0
bin	-10	0
bin	-9	0
bin	-8	0
bin	-7	0
bin	-6	0
bin	-5	0
bin	-4	0
bin	-3	0
bin	-2	0
bin	-1	0
bin	0	1
bin	1	1
bin	2	1
bin	3	1
bin	4	1
bin	5	1
bin	6	1
bin	7	1
bin	8	1
bin	9	2
bin	10	0
bin	11	0
bin	12	0
bin	13	0
bin	14	0
bin	15	0
bin	16	0
bin	17	8
bin	18	1
bin	19	1
bin	20	1
bin	21	1
bin	22	1
bin	23	1
bin	24	1
bin	25	1
bin	26	1
bin	27	1
bin	28	1
bin	29	1
bin	30	1
bin	31	1
bin	32	1
bin	33	1
bin	34	1
bin	35	1
bin	36	1
bin	37	1
bin	38	1
bin	39	1
bin	40	1
bin	41	1
bin	42	1
bin	43	1
bin	44	1
bin	45	1
bin	46	2
bin	47	0
bin	48	0
bin	49	0
bin	50	0
bin	51	0
bin	52	0
bin	53	0
bin	54	8
bin	55	1
bin	56	1
bin	57	1
bin	58	1
bin	59	1
bin	60	1
bin	61	1
bin	62	1
bin	63	1
bin	64	1
bin	65	1
bin	66	2
bin	67	0
bin	68	0
bin	69	0
bin	70	0
bin	71	0
bin	72	0
bin	73	0
bin	74	8
bin	75	1
bin	76	1
bin	77	1
bin	78	1
bin	79	1
bin	80	1
bin	81	1
bin	82	2
bin	83	1
bin	84	1
bin	85	2
bin	86	0
bin	87	0
bin	88	0
bin	89	0
bin	90	0
bin	91	0
bin	92	0
bin	93	8
bin	94	1
bin	95	1
bin	96	1
bin	97	2
bin	98	0
bin	99	0
bin	100	0
bin	101	0
bin	102	0
bin	103	0
bin	104	0
bin	105	8
bin	106	1
bin	107	1
bin	108	1
bin	109	1
bin	110	1
bin	111	1
bin	112	1
bin	113	1
bin	114	2
bin	115	0
bin	116	0
bin	117	0
bin	118	0
bin	119	0
bin	120	0
bin	121	0
bin	122	8
bin	123	1
bin	124	1
bin	125	1
bin	126	1
bin	127	1
bin	128	1
bin	129	1
bin	130	1
bin	131	1
bin	132	1
bin	133	1
bin	134	1
bin	135	1
bin	136	2
bin	137	0
bin	138	0
bin	139	0
bin	140	0
bin	141	5062
scalar SimphonyDHTNetwork.members[22] 	#packetsInTheNetwork 	4436
statistic SimphonyDHTNetwork.members[22] 	"packets statistics"
field count 4606
field mean 2204.6239687364
field stddev 1281.8698247919
field sum 10154498
field sqrsum 29953740772
field min 0
field max 4435
attr type  int
bin	-INF	0
bin	-47	0
bin	-46	0
bin	-45	0
bin	-44	0
bin	-43	0
bin	-42	0
bin	-41	0
bin	-40	0
bin	-39	0
bin	-38	0
bin	-37	0
bin	-36	0
bin	-35	0
bin	-34	0
bin	-33	0
bin	-32	0
bin	-31	0
bin	-30	0
bin	-29	0
bin	-28	0
bin	-27	0
bin	-26	0
bin	-25	0
bin	-24	0
bin	-23	0
bin	-22	0
bin	-21	0
bin	-20	0
bin	-19	0
bin	-18	0
bin	-17	0
bin	-16	0
bin	-15	0
bin	-14	0
bin	-13	0
bin	-12	0
bin	-11	0
bin	-10	0
bin	-9	0
bin	-8	0
bin	-7	0
bin	-6	0
bin	-5	0
bin	-4	0
bin	-3	0
bin	-2	0
bin	-1	0
bin	0	1
bin	1	1
bin	2	1
bin	3	1
bin	4	1
bin	5	1
bin	6	1
bin	7	1
bin	8	2
bin	9	0
bin	10	0
bin	11	0
bin	12	0
bin	13	0
bin	14	0
bin	15	0
bin	16	8
bin	17	1
bin	18	1
bin	19	1
bin	20	1
bin	21	1
bin	22	1
bin	23	1
bin	24	2
bin	25	0
bin	26	0
bin	27	0
bin	28	0
bin	29	0
bin	30	0
bin	31	0
bin	32	8
bin	33	1
bin	34	1
bin	35	1
bin	36	1
bin	37	2
bin	38	0
bin	39	0
bin	40	0
bin	41	0
bin	42	0
bin	43	0
bin	44	0
bin	45	8
bin	46	1
bin	47	1
bin	48	1
bin	49	1
bin	50	1
bin	51	2
bin	52	0
bin	53	0
bin	54	0
bin	55	0
bin	56	0
bin	57	0
bin	58	0
bin	59	8
bin	60	1
bin	61	1
bin	62	1
bin	63	1
bin	64	2
bin	65	0
bin	66	0
bin	67	0
bin	68	0
bin	69	0
bin	70	0
bin	71	0
bin	72	8
bin	73	1
bin	74	1
bin	75	1
bin	76	1
bin	77	1
bin	78	1
bin	79	1
bin	80	1
bin	81	2
bin	82	0
bin	83	0
bin	84	0
bin	85	0
bin	86	0
bin	87	0
bin	88	0
bin	89	8
bin	90	1
bin	91	1
bin	92	1
bin	93	1
bin	94	2
bin	95	0
bin	96	0
bin	97	0
bin	98	0
bin	99	0
bin	100	0
bin	101	0
bin	102	8
bin	103	1
bin	104	1
bin	105	1
bin	106	1
bin	107	1
bin	108	1
bin	109	1
bin	110	1
bin	111	2
bin	112	0
bin	113	0
bin	114	0
bin	115	0
bin	116	0
bin	117	0
bin	118	0
bin	119	8
bin	120	1
bin	121	1
bin	122	1
bin	123	1
bin	124	1
bin	125	1
bin	126	1
bin	127	1
bin	128	1
bin	129	1
bin	130	1
bin	131	1
bin	132	1
bin	133	1
bin	134	1
bin	135	1
bin	136	1
bin	137	1
bin	138	1
bin	139	1
bin	140	4458
scalar SimphonyDHTNetwork.members[23] 	#packetsInTheNetwork 	7448
statistic SimphonyDHTNetwork.members[23] 	"packets statistics"
field count 7918
field mean 3735.4705733771
field stddev 2145.3542792589
field sum 29577456
field sqrsum 146924065158
field min 0
field max 7447
attr type  int
bin	-INF	0
bin	-50	0
bin	-49	0
bin	-48	0
bin	-47	0
bin	-46	0
bin	-45	0
bin	-44	0
bin	-43	0
bin	-42	0
bin	-41	0
bin	-40	0
bin	-39	0
bin	-38	0
bin	-37	0
bin	-36	0
bin	-35	0
bin	-34	0
bin	-33	0
bin	-32	0
bin	-31	0
bin	-30	0
bin	-29	0
bin	-28	0
bin	-27	0
bin	-26	0
bin	-25	0
bin	-24	0
bin	-23	0
bin	-22	0
bin	-21	0
bin	-20	0
bin	-19	0
bin	-18	0
bin	-17	0
bin	-16	0
bin	-15	0
bin	-14	0
bin	-13	0
bin	-12	0
bin	-11	0
bin	-10	0
bin	-9	0
bin	-8	0
bin	-7	0
bin	-6	0
bin	-5	0
bin	-4	0
bin	-3	0
bin	-2	0
bin	-1	0
bin	0	1
bin	1	1
bin	2	2
bin	3	0
bin	4	0
bin	5	0
bin	6	0
bin	7	0
bin	8	0
bin	9	0
bin	10	8
bin	11	1
bin	12	1
bin	13	1
bin	14	1
bin	15	1
bin	16	1
bin	17	1
bin	18	1
bin	19	1
bin	20	1
bin	21	1
bin	22	1
bin	23	1
bin	24	1
bin	25	1
bin	26	1
bin	27	1
bin	28	1
bin	29	1
bin	30	1
bin	31	1
bin	32	1
bin	33	1
bin	34	1
bin	35	1
bin	36	1
bin	37	1
bin	38	1
bin	39	1
bin	40	1
bin	41	2
bin	42	0
bin	43	0
bin	44	0
bin	45	0
bin	46	0
bin	47	0
bin	48	0
bin	49	8
bin	50	1
bin	51	1
bin	52	1
bin	53	1
bin	54	1
bin	55	1
bin	56	1
bin	57	1
bin	58	1
bin	59	1
bin	60	1
bin	61	1
bin	62	1
bin	63	1
bin	64	1
bin	65	1
bin	66	1
bin	67	1
bin	68	1
bin	69	1
bin	70	1
bin	71	1
bin	72	1
bin	73	1
bin	74	1
bin	75	1
bin	76	1
bin	77	1
bin	78	1
bin	79	1
bin	80	2
bin	81	0
bin	82	0
bin	83	0
bin	84	0
bin	85	0
bin	86	0
bin	87	0
bin	88	8
bin	89	1
bin	90	1
bin	91	1
bin	92	2
bin	93	0
bin	94	0
bin	95	0
bin	96	0
bin	97	0
bin	98	0
bin	99	0
bin	100	8
bin	101	1
bin	102	1
bin	103	1
bin	104	1
bin	105	2
bin	106	0
bin	107	0
bin	108	0
bin	109	0
bin	110	0
bin	111	0
bin	112	0
bin	113	8
bin	114	1
bin	115	1
bin	116	1
bin	117	1
bin	118	1
bin	119	1
bin	120	2
bin	121	0
bin	122	0
bin	123	0
bin	124	0
bin	125	0
bin	126	0
bin	127	0
bin	128	8
bin	129	1
bin	130	1
bin	131	1
bin	132	1
bin	133	1
bin	134	1
bin	135	1
bin	136	1
bin	137	1
bin	138	1
bin	139	1
bin	140	1
bin	141	1
bin	142	1
bin	143	1
bin	144	1
bin	145	1
bin	146	1
bin	147	1
bin	148	2
bin	149	0
bin	150	7762
scalar SimphonyDHTNetwork.members[24] 	#packetsInTheNetwork 	3834
statistic SimphonyDHTNetwork.members[24] 	"packets statistics"
field count 4000
field mean 1909.6005
field stddev 1109.659739102
field sum 7638402
field sqrsum 19510443880
field min 0
field max 3833
attr type  int
bin	-INF	0
bin	-46	0
bin	-45	0
bin	-44	0
bin	-43	0
bin	-42	0
bin	-41	0
bin	-40	0
bin	-39	0
bin	-38	0
bin	-37	0
bin	-36	0
bin	-35	0
bin	-34	0
bin	-33	0
bin	-32	0
bin	-31	0
bin	-30	0
bin	-29	0
bin	-28	0
bin	-27	0
bin	-26	0
bin	-25	0
bin	-24	0
bin	-23	0
bin	-22	0
bin	-21	0
bin	-20	0
bin	-19	0
bin	-18	0
bin	-17	0
bin	-16	0
bin	-15	0
bin	-14	0
bin	-13	0
bin	-12	0
bin	-11	0
bin	-10	0
bin	-9	0
bin	-8	0
bin	-7	0
bin	-6	0
bin	-5	0
bin	-4	0
bin	-3	0
bin	-2	0
bin	-1	0
bin	0	1
bin	1	1
bin	2	1
bin	3	1
bin	4	1
bin	5	1
bin	6	1
bin	7	1
bin	8	1
bin	9	1
bin	10	1
bin	11	1
bin	12	1
bin	13	2
bin	14	1
bin	15	1
bin	16	1
bin	17	1
bin	18	1
bin	19	1
bin	20	2
bin	21	0
bin	22	0
bin	23	0
bin	24	0
bin	25	0
bin	26	0
bin	27	0
bin	28	8
bin	29	1
bin	30	1
bin	31	1
bin	32	1
bin	33	1
bin	34	1
bin	35	1
bin	36	1
bin	37	1
bin	38	1
bin	39	1
bin	40	1
bin	41	1
bin	42	1
bin	43	1
bin	44	1
bin	45	1
bin	46	1
bin	47	1
bin	48	1
bin	49	1
bin	50	2
bin	51	0
bin	52	0
bin	53	0
bin	54	0
bin	55	0
bin	56	0
bin	57	0
bin	58	8
bin	59	1
bin	60	1
bin	61	1
bin	62	1
bin	63	1
bin	64	1
bin	65	2
bin	66	2
bin	67	1
bin	68	1
bin	69	2
bin	70	0
bin	71	0
bin	72	0
bin	73	0
bin	74	0
bin	75	0
bin	76	0
bin	77	8
bin	78	1
bin	79	1
bin	80	1
bin	81	1
bin	82	1
bin	83	2
bin	84	0
bin	85	0
bin	86	0
bin	87	0
bin	88	0
bin	89	0
bin	90	0
bin	91	8
bin	92	1
bin	93	1
bin	94	1
bin	95	1
bin	96	1
bin	97	2
bin	98	0
bin	99	0
bin	100	0
bin	101	0
bin	102	0
bin	103	0
bin	104	0
bin	105	8
bin	106	1
bin	107	1
bin	108	1
bin	109	1
bin	110	1
bin	111	1
bin	112	1
bin	113	1
bin	114	1
bin	115	1
bin	116	1
bin	117	1
bin	118	1
bin	119	1
bin	120	1
bin	121	1
bin	122	1
bin	123	1
bin	124	1
bin	125	1
bin	126	1
bin	127	1
bin	128	2
bin	129	0
bin	130	0
bin	131	0
bin	132	0
bin	133	0
bin	134	0
bin	135	0
bin	136	8
bin	137	1
bin	138	3853
scalar SimphonyDHTNetwork.members[25] 	#packetsInTheNetwork 	5799
statistic SimphonyDHTNetwork.members[25] 	"packets statistics"
field count 6188
field mean 2904.0871040724
field stddev 1675.4462635378
field sum 17970491
field sqrsum 69555523733
field min 0
field max 5798
attr type  int
bin	-INF	0
bin	-50	0
bin	-49	0
bin	-48	0
bin	-47	0
bin	-46	0
bin	-45	0
bin	-44	0
bin	-43	0
bin	-42	0
bin	-41	0
bin	-40	0
bin	-39	0
bin	-38	0
bin	-37	0
bin	-36	0
bin	-35	0
bin	-34	0
bin	-33	0
bin	-32	0
bin	-31	0
bin	-30	0
bin	-29	0
bin	-28	0
bin	-27	0
bin	-26	0
bin	-25	0
bin	-24	0
bin	-23	0
bin	-22	0
bin	-21	0
bin	-20	0
bin	-19	0
bin	-18	0
bin	-17	0
bin	-16	0
bin	-15	0
bin	-14	0
bin	-13	0
bin	-12	0
bin	-11	0
bin	-10	0
bin	-9	0
bin	-8	0
bin	-7	0
bin	-6	0
bin	-5	0
bin	-4	0
bin	-3	0
bin	-2	0
bin	-1	0
bin	0	1
bin	1	1
bin	2	1
bin	3	1
bin	4	1
bin	5	1
bin	6	1
bin	7	1
bin	8	1
bin	9	1
bin	10	1
bin	11	1
bin	12	2
bin	13	0
bin	14	0
bin	15	0
bin	16	0
bin	17	0
bin	18	0
bin	19	0
bin	20	8
bin	21	1
bin	22	1
bin	23	1
bin	24	1
bin	25	1
bin	26	1
bin	27	1
bin	28	1
bin	29	1
bin	30	1
bin	31	1
bin	32	1
bin	33	1
bin	34	1
bin	35	1
bin	36	1
bin	37	1
bin	38	2
bin	39	0
bin	40	0
bin	41	0
bin	42	0
bin	43	0
bin	44	0
bin	45	0
bin	46	8
bin	47	1
bin	48	1
bin	49	1
bin	50	1
bin	51	2
bin	52	0
bin	53	0
bin	54	0
bin	55	0
bin	56	0
bin	57	0
bin	58	0
bin	59	8
bin	60	1
bin	61	1
bin	62	1
bin	63	1
bin	64	1
bin	65	1
bin	66	1
bin	67	2
bin	68	1
bin	69	2
bin	70	2
bin	71	1
bin	72	1
bin	73	1
bin	74	1
bin	75	1
bin	76	1
bin	77	1
bin	78	1
bin	79	1
bin	80	1
bin	81	1
bin	82	1
bin	83	1
bin	84	1
bin	85	1
bin	86	1
bin	87	1
bin	88	1
bin	89	1
bin	90	1
bin	91	2
bin	92	0
bin	93	0
bin	94	0
bin	95	0
bin	96	0
bin	97	0
bin	98	0
bin	99	8
bin	100	1
bin	101	1
bin	102	1
bin	103	1
bin	104	2
bin	105	0
bin	106	0
bin	107	0
bin	108	0
bin	109	0
bin	110	0
bin	111	0
bin	112	8
bin	113	1
bin	114	1
bin	115	1
bin	116	1
bin	117	2
bin	118	0
bin	119	0
bin	120	0
bin	121	0
bin	122	0
bin	123	0
bin	124	0
bin	125	8
bin	126	1
bin	127	1
bin	128	1
bin	129	1
bin	130	1
bin	131	1
bin	132	1
bin	133	1
bin	134	1
bin	135	1
bin	136	1
bin	137	1
bin	138	2
bin	139	0
bin	140	0
bin	141	0
bin	142	0
bin	143	0
bin	144	0
bin	145	0
bin	146	8
bin	147	1
bin	148	1
bin	149	6029
scalar SimphonyDHTNetwork.members[26] 	#packetsInTheNetwork 	3072
statistic SimphonyDHTNetwork.members[26] 	"packets statistics"
field count 3255
field mean 1543.5253456221
field stddev 889.43777772033
field sum 5024175
field sqrsum 10329179423
field min 0
field max 3071
attr type  int
bin	-INF	0
bin	-47	0
bin	-46	0
bin	-45	0
bin	-44	0
bin	-43	0
bin	-42	0
bin	-41	0
bin	-40	0
bin	-39	0
bin	-38	0
bin	-37	0
bin	-36	0
bin	-35	0
bin	-34	0
bin	-33	0
bin	-32	0
bin	-31	0
bin	-30	0
bin	-29	0
bin	-28	0
bin	-27	0
bin	-26	0
bin	-25	0
bin	-24	0
bin	-23	0
bin	-22	0
bin	-21	0
bin	-20	0
bin	-19	0
bin	-18	0
bin	-17	0
bin	-16	0
bin	-15	0
bin	-14	0
bin	-13	0
bin	-12	0
bin	-11	0
bin	-10	0
bin	-9	0
bin	-8	0
bin	-7	0
bin	-6	0
bin	-5	0
bin	-4	0
bin	-3	0
bin	-2	0
bin	-1	0
bin	0	1
bin	1	1
bin	2	2
bin	3	0
bin	4	0
bin	5	0
bin	6	0
bin	7	0
bin	8	0
bin	9	0
bin	10	8
bin	11	1
bin	12	1
bin	13	1
bin	14	1
bin	15	2
bin	16	0
bin	17	0
bin	18	0
bin	19	0
bin	20	0
bin	21	0
bin	22	0
bin	23	8
bin	24	1
bin	25	1
bin	26	1
bin	27	1
bin	28	1
bin	29	1
bin	30	2
bin	31	0
bin	32	0
bin	33	0
bin	34	0
bin	35	0
bin	36	0
bin	37	0
bin	38	8
bin	39	1
bin	40	1
bin	41	1
bin	42	1
bin	43	1
bin	44	1
bin	45	1
bin	46	1
bin	47	1
bin	48	2
bin	49	0
bin	50	0
bin	51	0
bin	52	0
bin	53	0
bin	54	0
bin	55	0
bin	56	8
bin	57	1
bin	58	1
bin	59	1
bin	60	1
bin	61	1
bin	62	1
bin	63	1
bin	64	1
bin	65	1
bin	66	1
bin	67	1
bin	68	1
bin	69	1
bin	70	1
bin	71	1
bin	72	1
bin	73	1
bin	74	1
bin	75	1
bin	76	1
bin	77	1
bin	78	1
bin	79	1
bin	80	1
bin	81	1
bin	82	2
bin	83	0
bin	84	0
bin	85	0
bin	86	0
bin	87	0
bin	88	0
bin	89	0
bin	90	8
bin	91	1
bin	92	1
bin	93	1
bin	94	1
bin	95	1
bin	96	1
bin	97	1
bin	98	1
bin	99	1
bin	100	2
bin	101	0
bin	102	0
bin	103	0
bin	104	0
bin	105	0
bin	106	0
bin	107	0
bin	108	8
bin	109	1
bin	110	1
bin	111	1
bin	112	1
bin	113	0
bin	114	2
bin	115	0
bin	116	0
bin	117	0
bin	118	0
bin	119	0
bin	120	0
bin	121	0
bin	122	8
bin	123	1
bin	124	2
bin	125	1
bin	126	2
bin	127	0
bin	128	0
bin	129	0
bin	130	0
bin	131	0
bin	132	0
bin	133	0
bin	134	8
bin	135	1
bin	136	1
bin	137	1
bin	138	1
bin	139	1
bin	140	1
bin	141	3106
scalar SimphonyDHTNetwork.members[27] 	#packetsInTheNetwork 	7830
statistic SimphonyDHTNetwork.members[27] 	"packets statistics"
field count 8253
field mean 3930.5905731249
field stddev 2264.6660847609
field sum 32439164
field sqrsum 169827207566
field min 0
field max 7829
attr type  int
bin	-INF	0
bin	-50	0
bin	-49	0
bin	-48	0
bin	-47	0
bin	-46	0
bin	-45	0
bin	-44	0
bin	-43	0
bin	-42	0
bin	-41	0
bin	-40	0
bin	-39	0
bin	-38	0
bin	-37	0
bin	-36	0
bin	-35	0
bin	-34	0
bin	-33	0
bin	-32	0
bin	-31	0
bin	-30	0
bin	-29	0
bin	-28	0
bin	-27	0
bin	-26	0
bin	-25	0
bin	-24	0
bin	-23	0
bin	-22	0
bin	-21	0
bin	-20	0
bin	-19	0
bin	-18	0
bin	-17	0
bin	-16	0
bin	-15	0
bin	-14	0
bin	-13	0
bin	-12	0
bin	-11	0
bin	-10	0
bin	-9	0
bin	-8	0
bin	-7	0
bin	-6	0
bin	-5	0
bin	-4	0
bin	-3	0
bin	-2	0
bin	-1	0
bin	0	1
bin	1	1
bin	2	1
bin	3	1
bin	4	1
bin	5	1
bin	6	1
bin	7	1
bin	8	1
bin	9	1
bin	10	2
bin	11	0
bin	12	0
bin	13	0
bin	14	0
bin	15	0
bin	16	0
bin	17	0
bin	18	8
bin	19	1
bin	20	1
bin	21	1
bin	22	1
bin	23	1
bin	24	1
bin	25	2
bin	26	1
bin	27	1
bin	28	1
bin	29	1
bin	30	1
bin	31	1
bin	32	1
bin	33	1
bin	34	1
bin	35	1
bin	36	1
bin	37	1
bin	38	1
bin	39	1
bin	40	1
bin	41	1
bin	42	1
bin	43	1
bin	44	1
bin	45	1
bin	46	1
bin	47	1
bin	48	1
bin	49	1
bin	50	1
bin	51	1
bin	52	1
bin	53	1
bin	54	1
bin	55	1
bin	56	1
bin	57	1
bin	58	1
bin	59	1
bin	60	1
bin	61	1
bin	62	1
bin	63	1
bin	64	1
bin	65	1
bin	66	2
bin	67	0
bin	68	0
bin	69	0
bin	70	0
bin	71	0
bin	72	0
bin	73	0
bin	74	8
bin	75	1
bin	76	1
bin	77	1
bin	78	1
bin	79	2
bin	80	0
bin	81	0
bin	82	0
bin	83	0
bin	84	0
bin	85	0
bin	86	0
bin	87	8
bin	88	1
bin	89	1
bin	90	1
bin	91	1
bin	92	2
bin	93	0
bin	94	0
bin	95	0
bin	96	0
bin	97	0
bin	98	0
bin	99	0
bin	100	8
bin	101	1
bin	102	1
bin	103	1
bin	104	1
bin	105	1
bin	106	1
bin	107	1
bin	108	1
bin	109	1
bin	110	1
bin	111	1
bin	112	1
bin	113	1
bin	114	1
bin	115	1
bin	116	1
bin	117	1
bin	118	1
bin	119	1
bin	120	1
bin	121	1
bin	122	1
bin	123	1
bin	124	1
bin	125	1
bin	126	1
bin	127	1
bin	128	1
bin	129	1
bin	130	1
bin	131	1
bin	132	1
bin	133	1
bin	134	1
bin	135	1
bin	136	1
bin	137	1
bin	138	1
bin	139	1
bin	140	1
bin	141	1
bin	142	1
bin	143	1
bin	144	1
bin	145	1
bin	146	1
bin	147	1
bin	148	1
bin	149	1
bin	150	8098
scalar SimphonyDHTNetwork.members[28] 	#packetsInTheNetwork 	9025
statistic SimphonyDHTNetwork.members[28] 	"packets statistics"
field count 9645
field mean 4520.4705028512
field stddev 2600.3012240732
field sum 43599938
field sqrsum 262300780556
field min 0
field max 9024
attr type  int
bin	-INF	0
bin	-48	0
bin	-47	0
bin	-46	0
bin	-45	0
bin	-44	0
bin	-43	0
bin	-42	0
bin	-41	0
bin	-40	0
bin	-39	0
bin	-38	0
bin	-37	0
bin	-36	0
bin	-35	0
bin	-34	0
bin	-33	0
bin	-32	0
bin	-31	0
bin	-30	0
bin	-29	0
bin	-28	0
bin	-27	0
bin	-26	0
bin	-25	0
bin	-24	0
bin	-23	0
bin	-22	0
bin	-21	0
bin	-20	0
bin	-19	0
bin	-18	0
bin	-17	0
bin	-16	0
bin	-15	0
bin	-14	0
bin	-13	0
bin	-12	0
bin	-11	0
bin	-10	0
bin	-9	0
bin	-8	0
bin	-7	0
bin	-6	0
bin	-5	0
bin	-4	0
bin	-3	0
bin	-2	0
bin	-1	0
bin	0	1
bin	1	1
bin	2	1
bin	3	1
bin	4	2
bin	5	0
bin	6	0
bin	7	0
bin	8	0
bin	9	0
bin	10	0
bin	11	0
bin	12	8
bin	13	1
bin	14	1
bin	15	1
bin	16	1
bin	17	1
bin	18	2
bin	19	0
bin	20	0
bin	21	0
bin	22	0
bin	23	0
bin	24	0
bin	25	0
bin	26	8
bin	27	1
bin	28	1
bin	29	1
bin	30	1
bin	31	1
bin	32	1
bin	33	1
bin	34	1
bin	35	1
bin	36	1
bin	37	2
bin	38	0
bin	39	0
bin	40	0
bin	41	0
bin	42	0
bin	43	0
bin	44	0
bin	45	8
bin	46	1
bin	47	1
bin	48	1
bin	49	1
bin	50	1
bin	51	1
bin	52	1
bin	53	1
bin	54	1
bin	55	1
bin	56	1
bin	57	1
bin	58	1
bin	59	1
bin	60	2
bin	61	0
bin	62	0
bin	63	0
bin	64	0
bin	65	0
bin	66	0
bin	67	0
bin	68	8
bin	69	1
bin	70	1
bin	71	1
bin	72	1
bin	73	2
bin	74	0
bin	75	0
bin	76	0
bin	77	0
bin	78	0
bin	79	0
bin	80	0
bin	81	8
bin	82	1
bin	83	1
bin	84	1
bin	85	1
bin	86	1
bin	87	2
bin	88	0
bin	89	0
bin	90	0
bin	91	0
bin	92	0
bin	93	0
bin	94	0
bin	95	8
bin	96	1
bin	97	1
bin	98	1
bin	99	1
bin	100	2
bin	101	0
bin	102	0
bin	103	0
bin	104	0
bin	105	0
bin	106	0
bin	107	0
bin	108	8
bin	109	1
bin	110	1
bin	111	1
bin	112	1
bin	113	1
bin	114	2
bin	115	0
bin	116	0
bin	117	0
bin	118	0
bin	119	0
bin	120	0
bin	121	0
bin	122	8
bin	123	1
bin	124	1
bin	125	1
bin	126	1
bin	127	1
bin	128	1
bin	129	1
bin	130	1
bin	131	2
bin	132	0
bin	133	0
bin	134	0
bin	135	0
bin	136	0
bin	137	0
bin	138	0
bin	139	8
bin	140	1
bin	141	1
bin	142	1
bin	143	9493
scalar SimphonyDHTNetwork.members[29] 	#packetsInTheNetwork 	3490
statistic SimphonyDHTNetwork.members[29] 	"packets statistics"
field count 3630
field mean 1740.641046832
field stddev 1007.8176214118
field sum 6318527
field sqrsum 14684249535
field min 0
field max 3489
attr type  int
bin	-INF	0
bin	-47	0
bin	-46	0
bin	-45	0
bin	-44	0
bin	-43	0
bin	-42	0
bin	-41	0
bin	-40	0
bin	-39	0
bin	-38	0
bin	-37	0
bin	-36	0
bin	-35	0
bin	-34	0
bin	-33	0
bin	-32	0
bin	-31	0
bin	-30	0
bin	-29	0
bin	-28	0
bin	-27	0
bin	-26	0
bin	-25	0
bin	-24	0
bin	-23	0
bin	-22	0
bin	-21	0
bin	-20	0
bin	-19	0
bin	-18	0
bin	-17	0
bin	-16	0
bin	-15	0
bin	-14	0
bin	-13	0
bin	-12	0
bin	-11	0
bin	-10	0
bin	-9	0
bin	-8	0
bin	-7	0
bin	-6	0
bin	-5	0
bin	-4	0
bin	-3	0
bin	-2	0
bin	-1	0
bin	0	1
bin	1	1
bin	2	1
bin	3	1
bin	4	1
bin	5	2
bin	6	0
bin	7	0
bin	8	0
bin	9	0
bin	10	0
bin	11	0
bin	12	0
bin	13	8
bin	14	1
bin	15	1
bin	16	1
bin	17	1
bin	18	2
bin	19	0
bin	20	0
bin	21	0
bin	22	0
bin	23	0
bin	24	0
bin	25	0
bin	26	8
bin	27	1
bin	28	1
bin	29	1
bin	30	1
bin	31	1
bin	32	1
bin	33	1
bin	34	2
bin	35	1
bin	36	1
bin	37	1
bin	38	2
bin	39	0
bin	40	0
bin	41	0
bin	42	0
bin	43	0
bin	44	0
bin	45	0
bin	46	8
bin	47	1
bin	48	1
bin	49	1
bin	50	1
bin	51	1
bin	52	1
bin	53	1
bin	54	1
bin	55	1
bin	56	1
bin	57	2
bin	58	0
bin	59	0
bin	60	0
bin	61	0
bin	62	0
bin	63	0
bin	64	0
bin	65	8
bin	66	1
bin	67	1
bin	68	1
bin	69	1
bin	70	1
bin	71	1
bin	72	1
bin	73	1
bin	74	1
bin	75	1
bin	76	1
bin	77	1
bin	78	1
bin	79	1
bin	80	1
bin	81	1
bin	82	1
bin	83	1
bin	84	1
bin	85	1
bin	86	1
bin	87	1
bin	88	1
bin	89	1
bin	90	1
bin	91	1
bin	92	1
bin	93	1
bin	94	1
bin	95	1
bin	96	1
bin	97	1
bin	98	1
bin	99	1
bin	100	1
bin	101	1
bin	102	1
bin	103	1
bin	104	1
bin	105	2
bin	106	0
bin	107	0
bin	108	0
bin	109	0
bin	110	0
bin	111	0
bin	112	0
bin	113	8
bin	114	1
bin	115	1
bin	116	1
bin	117	1
bin	118	1
bin	119	1
bin	120	1
bin	121	1
bin	122	1
bin	123	1
bin	124	1
bin	125	1
bin	126	2
bin	127	0
bin	128	0
bin	129	0
bin	130	0
bin	131	0
bin	132	0
bin	133	0
bin	134	8
bin	135	1
bin	136	1
bin	137	1
bin	138	1
bin	139	1
bin	140	1
bin	141	3482
scalar SimphonyDHTNetwork.members[30] 	#packetsInTheNetwork 	3494
statistic SimphonyDHTNetwork.members[30] 	"packets statistics"
field count 3654
field mean 1745.6841817187
field stddev 1010.6618969271
field sum 6378730
field sqrsum 14866559138
field min 0
field max 3493
attr type  int
bin	-INF	0
bin	-49	0
bin	-48	0
bin	-47	0
bin	-46	0
bin	-45	0
bin	-44	0
bin	-43	0
bin	-42	0
bin	-41	0
bin	-40	0
bin	-39	0
bin	-38	0
bin	-37	0
bin	-36	0
bin	-35	0
bin	-34	0
bin	-33	0
bin	-32	0
bin	-31	0
bin	-30	0
bin	-29	0
bin	-28	0
bin	-27	0
bin	-26	0
bin	-25	0
bin	-24	0
bin	-23	0
bin	-22	0
bin	-21	0
bin	-20	0
bin	-19	0
bin	-18	0
bin	-17	0
bin	-16	0
bin	-15	0
bin	-14	0
bin	-13	0
bin	-12	0
bin	-11	0
bin	-10	0
bin	-9	0
bin	-8	0
bin	-7	0
bin	-6	0
bin	-5	0
bin	-4	0
bin	-3	0
bin	-2	0
bin	-1	0
bin	0	1
bin	1	1
bin	2	1
bin	3	1
bin	4	1
bin	5	1
bin	6	1
bin	7	1
bin	8	1
bin	9	1
bin	10	1
bin	11	1
bin	12	1
bin	13	2
bin	14	0
bin	15	0
bin	16	0
bin	17	0
bin	18	0
bin	19	0
bin	20	0
bin	21	8
bin	22	1
bin	23	1
bin	24	1
bin	25	1
bin	26	1
bin	27	1
bin	28	1
bin	29	1
bin	30	2
bin	31	0
bin	32	0
bin	33	0
bin	34	0
bin	35	0
bin	36	0
bin	37	0
bin	38	8
bin	39	1
bin	40	1
bin	41	1
bin	42	1
bin	43	1
bin	44	1
bin	45	1
bin	46	1
bin	47	1
bin	48	1
bin	49	1
bin	50	1
bin	51	2
bin	52	0
bin	53	0
bin	54	0
bin	55	0
bin	56	0
bin	57	0
bin	58	0
bin	59	8
bin	60	1
bin	61	1
bin	62	1
bin	63	1
bin	64	1
bin	65	1
bin	66	1
bin	67	1
bin	68	1
bin	69	1
bin	70	1
bin	71	2
bin	72	1
bin	73	1
bin	74	1
bin	75	1
bin	76	2
bin	77	0
bin	78	0
bin	79	0
bin	80	0
bin	81	0
bin	82	0
bin	83	0
bin	84	8
bin	85	1
bin	86	1
bin	87	1
bin	88	1
bin	89	2
bin	90	0
bin	91	0
bin	92	0
bin	93	0
bin	94	0
bin	95	0
bin	96	0
bin	97	8
bin	98	1
bin	99	1
bin	100	1
bin	101	1
bin	102	1
bin	103	1
bin	104	1
bin	105	1
bin	106	1
bin	107	1
bin	108	2
bin	109	0
bin	110	0
bin	111	0
bin	112	0
bin	113	0
bin	114	0
bin	115	0
bin	116	8
bin	117	1
bin	118	1
bin	119	1
bin	120	1
bin	121	2
bin	122	0
bin	123	0
bin	124	0
bin	125	0
bin	126	0
bin	127	0
bin	128	0
bin	129	8
bin	130	1
bin	131	1
bin	132	1
bin	133	1
bin	134	1
bin	135	1
bin	136	1
bin	137	1
bin	138	1
bin	139	1
bin	140	2
bin	141	0
bin	142	0
bin	143	0
bin	144	0
bin	145	0
bin	146	3504
scalar SimphonyDHTNetwork.members[31] 	#packetsInTheNetwork 	4879
statistic SimphonyDHTNetwork.members[31] 	"packets statistics"
field count 5174
field mean 2442.2141476614
field stddev 1405.5676406926
field sum 12636016
field sqrsum 41079741336
field min 0
field max 4878
attr type  int
bin	-INF	0
bin	-48	0
bin	-47	0
bin	-46	0
bin	-45	0
bin	-44	0
bin	-43	0
bin	-42	0
bin	-41	0
bin	-40	0
bin	-39	0
bin	-38	0
bin	-37	0
bin	-36	0
bin	-35	0
bin	-34	0
bin	-33	0
bin	-32	0
bin	-31	0
bin	-30	0
bin	-29	0
bin	-28	0
bin	-27	0
bin	-26	0
bin	-25	0
bin	-24	0
bin	-23	0
bin	-22	0
bin	-21	0
bin	-20	0
bin	-19	0
bin	-18	0
bin	-17	0
bin	-16	0
bin	-15	0
bin	-14	0
bin	-13	0
bin	-12	0
bin	-11	0
bin	-10	0
bin	-9	0
bin	-8	0
bin	-7	0
bin	-6	0
bin	-5	0
bin	-4	0
bin	-3	0
bin	-2	0
bin	-1	0
bin	0	1
bin	1	1
bin	2	1
bin	3	1
bin	4	1
bin	5	1
bin	6	2
bin	7	0
bin	8	0
bin	9	0
bin	10	0
bin	11	0
bin	12	0
bin	13	0
bin	14	8
bin	15	1
bin	16	1
bin	17	1
bin	18	1
bin	19	1
bin	20	1
bin	21	1
bin	22	1
bin	23	1
bin	24	1
bin	25	1
bin	26	1
bin	27	1
bin	28	1
bin	29	1
bin	30	1
bin	31	1
bin	32	1
bin	33	1
bin	34	1
bin	35	1
bin	36	1
bin	37	2
bin	38	0
bin	39	0
bin	40	0
bin	41	0
bin	42	0
bin	43	0
bin	44	0
bin	45	8
bin	46	1
bin	47	1
bin	48	1
bin	49	1
bin	50	1
bin	51	1
bin	52	1
bin	53	1
bin	54	1
bin	55	1
bin	56	1
bin	57	1
bin	58	1
bin	59	1
bin	60	1
bin	61	1
bin	62	1
bin	63	1
bin	64	1
bin	65	2
bin	66	0
bin	67	0
bin	68	0
bin	69	0
bin	70	0
bin	71	0
bin	72	0
bin	73	8
bin	74	1
bin	75	1
bin	76	1
bin	77	1
bin	78	1
bin	79	2
bin	80	0
bin	81	0
bin	82	0
bin	83	0
bin	84	0
bin	85	0
bin	86	0
bin	87	8
bin	88	1
bin	89	1
bin	90	1
bin	91	1
bin	92	1
bin	93	1
bin	94	1
bin	95	2
bin	96	0
bin	97	0
bin	98	0
bin	99	0
bin	100	0
bin	101	0
bin	102	0
bin	103	8
bin	104	1
bin	105	1
bin	106	1
bin	107	1
bin	108	2
bin	109	0
bin	110	0
bin	111	0
bin	112	0
bin	113	0
bin	114	0
bin	115	0
bin	116	8
bin	117	1
bin	118	1
bin	119	1
bin	120	1
bin	121	1
bin	122	1
bin	123	1
bin	124	1
bin	125	2
bin	126	0
bin	127	0
bin	128	0
bin	129	0
bin	130	0
bin	131	0
bin	132	0
bin	133	8
bin	134	1
bin	135	1
bin	136	1
bin	137	1
bin	138	1
bin	139	2
bin	140	0
bin	141	0
bin	142	0
bin	143	5026
scalar SimphonyDHTNetwork.members[32] 	#packetsInTheNetwork 	4345
statistic SimphonyDHTNetwork.members[32] 	"packets statistics"
field count 4523
field mean 2164.9814282556
field stddev 1257.6510910397
field sum 9792211
field sqrsum 28352340255
field min 0
field max 4344
attr type  int
bin	-INF	0
bin	-48	0
bin	-47	0
bin	-46	0
bin	-45	0
bin	-44	0
bin	-43	0
bin	-42	0
bin	-41	0
bin	-40	0
bin	-39	0
bin	-38	0
bin	-37	0
bin	-36	0
bin	-35	0
bin	-34	0
bin	-33	0
bin	-32	0
bin	-31	0
bin	-30	0
bin	-29	0
bin	-28	0
bin	-27	0
bin	-26	0
bin	-25	0
bin	-24	0
bin	-23	0
bin	-22	0
bin	-21	0
bin	-20	0
bin	-19	0
bin	-18	0
bin	-17	0
bin	-16	0
bin	-15	0
bin	-14	0
bin	-13	0
bin	-12	0
bin	-11	0
bin	-10	0
bin	-9	0
bin	-8	0
bin	-7	0
bin	-6	0
bin	-5	0
bin	-4	0
bin	-3	0
bin	-2	0
bin	-1	0
bin	0	1
bin	1	1
bin	2	1
bin	3	1
bin	4	1
bin	5	2
bin	6	0
bin	7	0
bin	8	0
bin	9	0
bin	10	0
bin	11	0
bin	12	0
bin	13	8
bin	14	1
bin	15	1
bin	16	1
bin	17	1
bin	18	1
bin	19	1
bin	20	2
bin	21	0
bin	22	0
bin	23	0
bin	24	0
bin	25	0
bin	26	0
bin	27	0
bin	28	8
bin	29	1
bin	30	1
bin	31	1
bin	32	1
bin	33	2
bin	34	0
bin	35	0
bin	36	0
bin	37	0
bin	38	0
bin	39	0
bin	40	0
bin	41	8
bin	42	1
bin	43	1
bin	44	1
bin	45	1
bin	46	1
bin	47	2
bin	48	0
bin	49	0
bin	50	0
bin	51	0
bin	52	0
bin	53	0
bin	54	0
bin	55	8
bin	56	1
bin	57	1
bin	58	1
bin	59	1
bin	60	2
bin	61	0
bin	62	0
bin	63	0
bin	64	0
bin	65	0
bin	66	0
bin	67	0
bin	68	8
bin	69	1
bin	70	1
bin	71	1
bin	72	1
bin	73	2
bin	74	0
bin	75	0
bin	76	0
bin	77	0
bin	78	0
bin	79	0
bin	80	0
bin	81	8
bin	82	1
bin	83	1
bin	84	1
bin	85	1
bin	86	1
bin	87	2
bin	88	0
bin	89	0
bin	90	0
bin	91	0
bin	92	0
bin	93	0
bin	94	0
bin	95	8
bin	96	1
bin	97	1
bin	98	1
bin	99	1
bin	100	2
bin	101	0
bin	102	0
bin	103	0
bin	104	0
bin	105	0
bin	106	0
bin	107	0
bin	108	8
bin	109	1
bin	110	1
bin	111	1
bin	112	1
bin	113	1
bin	114	1
bin	115	1
bin	116	1
bin	117	2
bin	118	0
bin	119	0
bin	120	0
bin	121	0
bin	122	0
bin	123	0
bin	124	0
bin	125	8
bin	126	1
bin	127	1
bin	128	1
bin	129	1
bin	130	1
bin	131	1
bin	132	1
bin	133	2
bin	134	0
bin	135	0
bin	136	0
bin	137	0
bin	138	0
bin	139	0
bin	140	0
bin	141	8
bin	142	1
bin	143	4370
scalar SimphonyDHTNetwork.members[33] 	#packetsInTheNetwork 	7710
statistic SimphonyDHTNetwork.members[33] 	"packets statistics"
field count 8215
field mean 3873.2309190505
field stddev 2221.1748168373
field sum 31818592
field sqrsum 163765489030
field min 0
field max 7709
attr type  int
bin	-INF	0
bin	-51	0
bin	-49	0
bin	-47	0
bin	-45	0
bin	-43	0
bin	-41	0
bin	-39	0
bin	-37	0
bin	-35	0
bin	-33	0
bin	-31	0
bin	-29	0
bin	-27	0
bin	-25	0
bin	-23	0
bin	-21	0
bin	-19	0
bin	-17	0
bin	-15	0
bin	-13	0
bin	-11	0
bin	-9	0
bin	-7	0
bin	-5	0
bin	-3	0
bin	-1	1
bin	1	3
bin	3	0
bin	5	0
bin	7	0
bin	9	8
bin	11	2
bin	13	2
bin	15	2
bin	17	2
bin	19	2
bin	21	2
bin	23	2
bin	25	2
bin	27	2
bin	29	2
bin	31	2
bin	33	2
bin	35	2
bin	37	2
bin	39	0
bin	41	0
bin	43	0
bin	45	9
bin	47	2
bin	49	2
bin	51	2
bin	53	3
bin	55	0
bin	57	0
bin	59	0
bin	61	8
bin	63	2
bin	65	2
bin	67	2
bin	69	2
bin	71	2
bin	73	2
bin	75	2
bin	77	2
bin	79	3
bin	81	0
bin	83	0
bin	85	0
bin	87	8
bin	89	2
bin	91	2
bin	93	2
bin	95	0
bin	97	0
bin	99	0
bin	101	9
bin	103	2
bin	105	3
bin	107	0
bin	109	0
bin	111	0
bin	113	8
bin	115	2
bin	117	2
bin	119	2
bin	121	2
bin	123	0
bin	125	0
bin	127	0
bin	129	9
bin	131	2
bin	133	2
bin	135	2
bin	137	2
bin	139	2
bin	141	2
bin	143	2
bin	145	3
bin	147	0
bin	149	0
bin	151	0
bin	153	8060
scalar SimphonyDHTNetwork.members[34] 	#packetsInTheNetwork 	3965
statistic SimphonyDHTNetwork.members[34] 	"packets statistics"
field count 4121
field mean 1980.6901237564
field stddev 1147.7561639839
field sum 8162424
field sqrsum 21594690756
field min 0
field max 3964
attr type  int
bin	-INF	0
bin	-48	0
bin	-47	0
bin	-46	0
bin	-45	0
bin	-44	0
bin	-43	0
bin	-42	0
bin	-41	0
bin	-40	0
bin	-39	0
bin	-38	0
bin	-37	0
bin	-36	0
bin	-35	0
bin	-34	0
bin	-33	0
bin	-32	0
bin	-31	0
bin	-30	0
bin	-29	0
bin	-28	0
bin	-27	0
bin	-26	0
bin	-25	0
bin	-24	0
bin	-23	0
bin	-22	0
bin	-21	0
bin	-20	0
bin	-19	0
bin	-18	0
bin	-17	0
bin	-16	0
bin	-15	0
bin	-14	0
bin	-13	0
bin	-12	0
bin	-11	0
bin	-10	0
bin	-9	0
bin	-8	0
bin	-7	0
bin	-6	0
bin	-5	0
bin	-4	0
bin	-3	0
bin	-2	0
bin	-1	0
bin	0	1
bin	1	1
bin	2	1
bin	3	1
bin	4	1
bin	5	1
bin	6	1
bin	7	1
bin	8	1
bin	9	1
bin	10	1
bin	11	1
bin	12	1
bin	13	1
bin	14	2
bin	15	0
bin	16	0
bin	17	0
bin	18	0
bin	19	0
bin	20	0
bin	21	0
bin	22	8
bin	23	1
bin	24	1
bin	25	1
bin	26	1
bin	27	1
bin	28	2
bin	29	1
bin	30	1
bin	31	1
bin	32	1
bin	33	1
bin	34	1
bin	35	1
bin	36	1
bin	37	1
bin	38	2
bin	39	0
bin	40	0
bin	41	0
bin	42	0
bin	43	0
bin	44	0
bin	45	0
bin	46	8
bin	47	1
bin	48	1
bin	49	1
bin	50	1
bin	51	1
bin	52	1
bin	53	1
bin	54	1
bin	55	1
bin	56	1
bin	57	2
bin	58	0
bin	59	0
bin	60	0
bin	61	0
bin	62	0
bin	63	0
bin	64	0
bin	65	8
bin	66	1
bin	67	1
bin	68	1
bin	69	1
bin	70	1
bin	71	1
bin	72	1
bin	73	1
bin	74	1
bin	75	1
bin	76	1
bin	77	1
bin	78	1
bin	79	1
bin	80	1
bin	81	1
bin	82	1
bin	83	1
bin	84	1
bin	85	1
bin	86	1
bin	87	1
bin	88	1
bin	89	1
bin	90	1
bin	91	1
bin	92	1
bin	93	1
bin	94	1
bin	95	1
bin	96	1
bin	97	1
bin	98	1
bin	99	2
bin	100	0
bin	101	0
bin	102	0
bin	103	0
bin	104	0
bin	105	0
bin	106	0
bin	107	8
bin	108	1
bin	109	1
bin	110	1
bin	111	1
bin	112	1
bin	113	1
bin	114	1
bin	115	1
bin	116	1
bin	117	1
bin	118	1
bin	119	1
bin	120	1
bin	121	1
bin	122	1
bin	123	1
bin	124	1
bin	125	1
bin	126	1
bin	127	1
bin	128	1
bin	129	1
bin	130	1
bin	131	1
bin	132	1
bin	133	1
bin	134	1
bin	135	1
bin	136	1
bin	137	1
bin	138	1
bin	139	1
bin	140	1
bin	141	1
bin	142	1
bin	143	3973
scalar SimphonyDHTNetwork.members[35] 	#packetsInTheNetwork 	9041
statistic SimphonyDHTNetwork.members[35] 	"packets statistics"
field count 9656
field mean 4531.4081400166
field stddev 2608.8493083888
field sum 43755277
field sqrsum 263985862829
field min 0
field max 9040
attr type  int
bin	-INF	0
bin	-48	0
bin	-47	0
bin	-46	0
bin	-45	0
bin	-44	0
bin	-43	0
bin	-42	0
bin	-41	0
bin	-40	0
bin	-39	0
bin	-38	0
bin	-37	0
bin	-36	0
bin	-35	0
bin	-34	0
bin	-33	0
bin	-32	0
bin	-31	0
bin	-30	0
bin	-29	0
bin	-28	0
bin	-27	0
bin	-26	0
bin	-25	0
bin	-24	0
bin	-23	0
bin	-22	0
bin	-21	0
bin	-20	0
bin	-19	0
bin	-18	0
bin	-17	0
bin	-16	0
bin	-15	0
bin	-14	0
bin	-13	0
bin	-12	0
bin	-11	0
bin	-10	0
bin	-9	0
bin	-8	0
bin	-7	0
bin	-6	0
bin	-5	0
bin	-4	0
bin	-3	0
bin	-2	0
bin	-1	0
bin	0	1
bin	1	1
bin	2	1
bin	3	1
bin	4	1
bin	5	1
bin	6	1
bin	7	1
bin	8	1
bin	9	1
bin	10	1
bin	11	1
bin	12	1
bin	13	1
bin	14	1
bin	15	2
bin	16	0
bin	17	0
bin	18	0
bin	19	0
bin	20	0
bin	21	0
bin	22	0
bin	23	8
bin	24	1
bin	25	1
bin	26	1
bin	27	1
bin	28	1
bin	29	1
bin	30	1
bin	31	1
bin	32	2
bin	33	0
bin	34	0
bin	35	0
bin	36	0
bin	37	0
bin	38	0
bin	39	0
bin	40	8
bin	41	1
bin	42	1
bin	43	1
bin	44	1
bin	45	2
bin	46	0
bin	47	0
bin	48	0
bin	49	0
bin	50	0
bin	51	0
bin	52	0
bin	53	8
bin	54	1
bin	55	1
bin	56	1
bin	57	1
bin	58	2
bin	59	0
bin	60	0
bin	61	0
bin	62	0
bin	63	0
bin	64	0
bin	65	0
bin	66	8
bin	67	1
bin	68	1
bin	69	1
bin	70	1
bin	71	1
bin	72	1
bin	73	1
bin	74	1
bin	75	1
bin	76	1
bin	77	1
bin	78	1
bin	79	1
bin	80	1
bin	81	1
bin	82	1
bin	83	1
bin	84	1
bin	85	1
bin	86	1
bin	87	1
bin	88	2
bin	89	0
bin	90	0
bin	91	0
bin	92	0
bin	93	0
bin	94	0
bin	95	0
bin	96	8
bin	97	1
bin	98	1
bin	99	1
bin	100	1
bin	101	2
bin	102	0
bin	103	0
bin	104	0
bin	105	0
bin	106	0
bin	107	0
bin	108	0
bin	109	8
bin	110	1
bin	111	1
bin	112	1
bin	113	1
bin	114	2
bin	115	0
bin	116	0
bin	117	0
bin	118	0
bin	119	0
bin	120	0
bin	121	0
bin	122	8
bin	123	1
bin	124	1
bin	125	1
bin	126	1
bin	127	1
bin	128	1
bin	129	1
bin	130	1
bin	131	1
bin	132	1
bin	133	2
bin	134	0
bin	135	0
bin	136	0
bin	137	0
bin	138	0
bin	139	0
bin	140	0
bin	141	8
bin	142	1
bin	143	1
bin	144	9504
scalar SimphonyDHTNetwork.members[36] 	#packetsInTheNetwork 	4186
statistic SimphonyDHTNetwork.members[36] 	"packets statistics"
field count 4353
field mean 2090.2334022513
field stddev 1211.0674730878
field sum 9098786
field sqrsum 25401597032
field min 0
field max 4185
attr type  int
bin	-INF	0
bin	-47	0
bin	-46	0
bin	-45	0
bin	-44	0
bin	-43	0
bin	-42	0
bin	-41	0
bin	-40	0
bin	-39	0
bin	-38	0
bin	-37	0
bin	-36	0
bin	-35	0
bin	-34	0
bin	-33	0
bin	-32	0
bin	-31	0
bin	-30	0
bin	-29	0
bin	-28	0
bin	-27	0
bin	-26	0
bin	-25	0
bin	-24	0
bin	-23	0
bin	-22	0
bin	-21	0
bin	-20	0
bin	-19	0
bin	-18	0
bin	-17	0
bin	-16	0
bin	-15	0
bin	-14	0
bin	-13	0
bin	-12	0
bin	-11	0
bin	-10	0
bin	-9	0
bin	-8	0
bin	-7	0
bin	-6	0
bin	-5	0
bin	-4	0
bin	-3	0
bin	-2	0
bin	-1	0
bin	0	1
bin	1	1
bin	2	2
bin	3	0
bin	4	0
bin	5	0
bin	6	0
bin	7	0
bin	8	0
bin	9	0
bin	10	8
bin	11	1
bin	12	1
bin	13	1
bin	14	1
bin	15	2
bin	16	0
bin	17	0
bin	18	0
bin	19	0
bin	20	0
bin	21	0
bin	22	0
bin	23	8
bin	24	1
bin	25	1
bin	26	1
bin	27	1
bin	28	1
bin	29	1
bin	30	1
bin	31	1
bin	32	1
bin	33	1
bin	34	1
bin	35	2
bin	36	0
bin	37	0
bin	38	0
bin	39	0
bin	40	0
bin	41	0
bin	42	0
bin	43	8
bin	44	1
bin	45	1
bin	46	1
bin	47	1
bin	48	2
bin	49	0
bin	50	0
bin	51	0
bin	52	0
bin	53	0
bin	54	0
bin	55	0
bin	56	8
bin	57	1
bin	58	1
bin	59	1
bin	60	1
bin	61	1
bin	62	1
bin	63	2
bin	64	0
bin	65	0
bin	66	0
bin	67	0
bin	68	0
bin	69	0
bin	70	0
bin	71	8
bin	72	1
bin	73	1
bin	74	1
bin	75	1
bin	76	1
bin	77	1
bin	78	1
bin	79	1
bin	80	1
bin	81	1
bin	82	1
bin	83	1
bin	84	1
bin	85	1
bin	86	1
bin	87	1
bin	88	1
bin	89	1
bin	90	1
bin	91	1
bin	92	1
bin	93	1
bin	94	1
bin	95	2
bin	96	0
bin	97	0
bin	98	0
bin	99	0
bin	100	0
bin	101	0
bin	102	0
bin	103	8
bin	104	1
bin	105	1
bin	106	1
bin	107	1
bin	108	1
bin	109	2
bin	110	0
bin	111	0
bin	112	0
bin	113	0
bin	114	0
bin	115	0
bin	116	0
bin	117	8
bin	118	1
bin	119	1
bin	120	1
bin	121	1
bin	122	1
bin	123	1
bin	124	1
bin	125	1
bin	126	1
bin	127	1
bin	128	1
bin	129	1
bin	130	1
bin	131	1
bin	132	1
bin	133	1
bin	134	1
bin	135	1
bin	136	1
bin	137	1
bin	138	1
bin	139	1
bin	140	1
bin	141	4205
scalar SimphonyDHTNetwork.members[37] 	#packetsInTheNetwork 	2294
statistic SimphonyDHTNetwork.members[37] 	"packets statistics"
field count 2454
field mean 1156.4828850856
field stddev 661.81548066272
field sum 2838009
field sqrsum 4356522175
field min 0
field max 2293
attr type  int
bin	-INF	0
bin	-48	0
bin	-47	0
bin	-46	0
bin	-45	0
bin	-44	0
bin	-43	0
bin	-42	0
bin	-41	0
bin	-40	0
bin	-39	0
bin	-38	0
bin	-37	0
bin	-36	0
bin	-35	0
bin	-34	0
bin	-33	0
bin	-32	0
bin	-31	0
bin	-30	0
bin	-29	0
bin	-28	0
bin	-27	0
bin	-26	0
bin	-25	0
bin	-24	0
bin	-23	0
bin	-22	0
bin	-21	0
bin	-20	0
bin	-19	0
bin	-18	0
bin	-17	0
bin	-16	0
bin	-15	0
bin	-14	0
bin	-13	0
bin	-12	0
bin	-11	0
bin	-10	0
bin	-9	0
bin	-8	0
bin	-7	0
bin	-6	0
bin	-5	0
bin	-4	0
bin	-3	0
bin	-2	0
bin	-1	0
bin	0	1
bin	1	1
bin	2	1
bin	3	1
bin	4	1
bin	5	1
bin	6	1
bin	7	1
bin	8	1
bin	9	1
bin	10	1
bin	11	1
bin	12	1
bin	13	1
bin	14	1
bin	15	1
bin	16	2
bin	17	0
bin	18	0
bin	19	0
bin	20	0
bin	21	0
bin	22	0
bin	23	0
bin	24	8
bin	25	1
bin	26	1
bin	27	1
bin	28	1
bin	29	1
bin	30	1
bin	31	1
bin	32	1
bin	33	1
bin	34	1
bin	35	1
bin	36	1
bin	37	1
bin	38	1
bin	39	1
bin	40	1
bin	41	1
bin	42	1
bin	43	1
bin	44	1
bin	45	1
bin	46	1
bin	47	1
bin	48	1
bin	49	1
bin	50	1
bin	51	1
bin	52	1
bin	53	1
bin	54	1
bin	55	1
bin	56	1
bin	57	1
bin	58	1
bin	59	1
bin	60	2
bin	61	0
bin	62	0
bin	63	0
bin	64	0
bin	65	0
bin	66	0
bin	67	0
bin	68	8
bin	69	1
bin	70	1
bin	71	1
bin	72	1
bin	73	2
bin	74	0
bin	75	0
bin	76	0
bin	77	0
bin	78	0
bin	79	0
bin	80	0
bin	81	8
bin	82	1
bin	83	1
bin	84	1
bin	85	1
bin	86	1
bin	87	1
bin	88	1
bin	89	1
bin	90	1
bin	91	1
bin	92	1
bin	93	1
bin	94	1
bin	95	1
bin	96	1
bin	97	1
bin	98	1
bin	99	1
bin	100	1
bin	101	1
bin	102	1
bin	103	1
bin	104	1
bin	105	1
bin	106	1
bin	107	2
bin	108	1
bin	109	1
bin	110	1
bin	111	1
bin	112	1
bin	113	1
bin	114	1
bin	115	1
bin	116	1
bin	117	1
bin	118	1
bin	119	1
bin	120	1
bin	121	1
bin	122	1
bin	123	1
bin	124	1
bin	125	1
bin	126	1
bin	127	1
bin	128	1
bin	129	1
bin	130	1
bin	131	1
bin	132	1
bin	133	1
bin	134	1
bin	135	1
bin	136	1
bin	137	1
bin	138	1
bin	139	1
bin	140	1
bin	141	1
bin	142	1
bin	143	1
bin	144	2306
scalar SimphonyDHTNetwork.members[38] 	#packetsInTheNetwork 	9191
statistic SimphonyDHTNetwork.members[38] 	"packets statistics"
field count 9835
field mean 4605.2237925775
field stddev 2648.8519523925
field sum 45292376
field sqrsum 277580969068
field min 0
field max 9190
attr type  int
bin	-INF	0
bin	-49	0
bin	-48	0
bin	-47	0
bin	-46	0
bin	-45	0
bin	-44	0
bin	-43	0
bin	-42	0
bin	-41	0
bin	-40	0
bin	-39	0
bin	-38	0
bin	-37	0
bin	-36	0
bin	-35	0
bin	-34	0
bin	-33	0
bin	-32	0
bin	-31	0
bin	-30	0
bin	-29	0
bin	-28	0
bin	-27	0
bin	-26	0
bin	-25	0
bin	-24	0
bin	-23	0
bin	-22	0
bin	-21	0
bin	-20	0
bin	-19	0
bin	-18	0
bin	-17	0
bin	-16	0
bin	-15	0
bin	-14	0
bin	-13	0
bin	-12	0
bin	-11	0
bin	-10	0
bin	-9	0
bin	-8	0
bin	-7	0
bin	-6	0
bin	-5	0
bin	-4	0
bin	-3	0
bin	-2	0
bin	-1	0
bin	0	1
bin	1	1
bin	2	1
bin	3	1
bin	4	2
bin	5	0
bin	6	0
bin	7	0
bin	8	0
bin	9	0
bin	10	0
bin	11	0
bin	12	8
bin	13	1
bin	14	1
bin	15	1
bin	16	1
bin	17	1
bin	18	1
bin	19	1
bin	20	1
bin	21	1
bin	22	1
bin	23	1
bin	24	1
bin	25	1
bin	26	1
bin	27	1
bin	28	1
bin	29	1
bin	30	1
bin	31	2
bin	32	0
bin	33	0
bin	34	0
bin	35	0
bin	36	0
bin	37	0
bin	38	0
bin	39	8
bin	40	1
bin	41	1
[...]
bin	-6	0
bin	-5	0
bin	-4	0
bin	-3	0
bin	-2	0
bin	-1	0
bin	0	1
bin	1	0
bin	2	0
bin	3	1
bin	4	3
bin	5	0
bin	6	0
bin	7	2
bin	8	0
bin	9	2
bin	10	1
bin	11	1
bin	12	2
bin	13	0
bin	14	2
bin	15	1
bin	16	1
bin	17	2
bin	18	0
bin	19	2
bin	20	1
bin	21	2
bin	22	1
bin	23	1
bin	24	1
bin	25	1
bin	26	1
bin	27	1
bin	28	0
bin	29	0
bin	30	0
bin	31	0
bin	32	0
bin	33	0
bin	34	0
bin	35	0
bin	36	0
bin	37	0
bin	38	0
bin	39	0
bin	40	0
bin	41	0
scalar SimphonyDHTNetwork.members[2027] 	#packetsInTheNetwork 	36
statistic SimphonyDHTNetwork.members[2027] 	"packets statistics"
field count 38
field mean 18.184210526316
field stddev 9.8361035549485
field sum 691
field sqrsum 16145
field min 0
field max 35
attr type  int
bin	-INF	0
bin	-18	0
bin	-17	0
bin	-16	0
bin	-15	0
bin	-14	0
bin	-13	0
bin	-12	0
bin	-11	0
bin	-10	0
bin	-9	0
bin	-8	0
bin	-7	0
bin	-6	0
bin	-5	0
bin	-4	0
bin	-3	0
bin	-2	0
bin	-1	0
bin	0	1
bin	1	0
bin	2	0
bin	3	1
bin	4	3
bin	5	0
bin	6	0
bin	7	2
bin	8	0
bin	9	2
bin	10	1
bin	11	1
bin	12	2
bin	13	0
bin	14	0
bin	15	3
bin	16	1
bin	17	1
bin	18	2
bin	19	0
bin	20	0
bin	21	3
bin	22	1
bin	23	2
bin	24	1
bin	25	1
bin	26	1
bin	27	1
bin	28	1
bin	29	1
bin	30	1
bin	31	1
bin	32	1
bin	33	1
bin	34	1
bin	35	1
bin	36	0
bin	37	0
bin	38	0
bin	39	0
bin	40	0
bin	41	0
bin	42	0
bin	43	0
bin	44	0
bin	45	0
bin	46	0
bin	47	0
bin	48	0
bin	49	0
bin	50	0
bin	51	0
bin	52	0
bin	53	0
scalar SimphonyDHTNetwork.members[2028] 	#packetsInTheNetwork 	24
statistic SimphonyDHTNetwork.members[2028] 	"packets statistics"
field count 26
field mean 13.038461538462
field stddev 6.9309783969121
field sum 339
field sqrsum 5621
field min 0
field max 24
attr type  int
bin	-INF	0
bin	-12	0
bin	-11	0
bin	-10	0
bin	-9	0
bin	-8	0
bin	-7	0
bin	-6	0
bin	-5	0
bin	-4	0
bin	-3	0
bin	-2	0
bin	-1	0
bin	0	1
bin	1	0
bin	2	0
bin	3	1
bin	4	3
bin	5	0
bin	6	0
bin	7	2
bin	8	0
bin	9	1
bin	10	2
bin	11	1
bin	12	1
bin	13	1
bin	14	2
bin	15	0
bin	16	2
bin	17	1
bin	18	1
bin	19	1
bin	20	2
bin	21	0
bin	22	2
bin	23	1
bin	24	1
bin	25	0
bin	26	0
bin	27	0
bin	28	0
bin	29	0
bin	30	0
bin	31	0
bin	32	0
bin	33	0
bin	34	0
bin	35	0
bin	36	0
scalar SimphonyDHTNetwork.members[2029] 	#packetsInTheNetwork 	72
statistic SimphonyDHTNetwork.members[2029] 	"packets statistics"
field count 77
field mean 36.103896103896
field stddev 20.331194864558
field sum 2780
field sqrsum 131784
field min 0
field max 71
attr type  int
bin	-INF	0
bin	-36	0
bin	-35	0
bin	-34	0
bin	-33	0
bin	-32	0
bin	-31	0
bin	-30	0
bin	-29	0
bin	-28	0
bin	-27	0
bin	-26	0
bin	-25	0
bin	-24	0
bin	-23	0
bin	-22	0
bin	-21	0
bin	-20	0
bin	-19	0
bin	-18	0
bin	-17	0
bin	-16	0
bin	-15	0
bin	-14	0
bin	-13	0
bin	-12	0
bin	-11	0
bin	-10	0
bin	-9	0
bin	-8	0
bin	-7	0
bin	-6	0
bin	-5	0
bin	-4	0
bin	-3	0
bin	-2	0
bin	-1	0
bin	0	1
bin	1	0
bin	2	0
bin	3	1
bin	4	3
bin	5	0
bin	6	0
bin	7	2
bin	8	0
bin	9	2
bin	10	1
bin	11	1
bin	12	2
bin	13	0
bin	14	0
bin	15	3
bin	16	1
bin	17	1
bin	18	2
bin	19	0
bin	20	0
bin	21	0
bin	22	4
bin	23	1
bin	24	2
bin	25	1
bin	26	1
bin	27	1
bin	28	1
bin	29	1
bin	30	1
bin	31	1
bin	32	1
bin	33	2
bin	34	0
bin	35	0
bin	36	0
bin	37	0
bin	38	5
bin	39	1
bin	40	1
bin	41	1
bin	42	1
bin	43	2
bin	44	0
bin	45	0
bin	46	0
bin	47	0
bin	48	5
bin	49	1
bin	50	1
bin	51	1
bin	52	1
bin	53	2
bin	54	0
bin	55	0
bin	56	0
bin	57	0
bin	58	5
bin	59	1
bin	60	1
bin	61	1
bin	62	1
bin	63	1
bin	64	1
bin	65	1
bin	66	1
bin	67	1
bin	68	1
bin	69	1
bin	70	1
bin	71	1
bin	72	0
bin	73	0
bin	74	0
bin	75	0
bin	76	0
bin	77	0
bin	78	0
bin	79	0
bin	80	0
bin	81	0
bin	82	0
bin	83	0
bin	84	0
bin	85	0
bin	86	0
bin	87	0
bin	88	0
bin	89	0
bin	90	0
bin	91	0
bin	92	0
bin	93	0
bin	94	0
bin	95	0
bin	96	0
bin	97	0
bin	98	0
bin	99	0
bin	100	0
bin	101	0
bin	102	0
bin	103	0
bin	104	0
bin	105	0
bin	106	0
bin	107	0
scalar SimphonyDHTNetwork.members[2030] 	#packetsInTheNetwork 	27
statistic SimphonyDHTNetwork.members[2030] 	"packets statistics"
field count 29
field mean 13.965517241379
field stddev 7.3556720515565
field sum 405
field sqrsum 7171
field min 0
field max 26
attr type  int
bin	-INF	0
bin	-13	0
bin	-12	0
bin	-11	0
bin	-10	0
bin	-9	0
bin	-8	0
bin	-7	0
bin	-6	0
bin	-5	0
bin	-4	0
bin	-3	0
bin	-2	0
bin	-1	0
bin	0	1
bin	1	0
bin	2	0
bin	3	1
bin	4	3
bin	5	0
bin	6	0
bin	7	2
bin	8	0
bin	9	2
bin	10	1
bin	11	1
bin	12	2
bin	13	0
bin	14	2
bin	15	1
bin	16	1
bin	17	2
bin	18	0
bin	19	2
bin	20	1
bin	21	2
bin	22	1
bin	23	1
bin	24	1
bin	25	1
bin	26	1
bin	27	0
bin	28	0
bin	29	0
bin	30	0
bin	31	0
bin	32	0
bin	33	0
bin	34	0
bin	35	0
bin	36	0
bin	37	0
bin	38	0
bin	39	0
scalar SimphonyDHTNetwork.members[2031] 	#packetsInTheNetwork 	53
statistic SimphonyDHTNetwork.members[2031] 	"packets statistics"
field count 58
field mean 27.137931034483
field stddev 14.896659552387
field sum 1574
field sqrsum 55364
field min 0
field max 52
attr type  int
bin	-INF	0
bin	-26	0
bin	-25	0
bin	-24	0
bin	-23	0
bin	-22	0
bin	-21	0
bin	-20	0
bin	-19	0
bin	-18	0
bin	-17	0
bin	-16	0
bin	-15	0
bin	-14	0
bin	-13	0
bin	-12	0
bin	-11	0
bin	-10	0
bin	-9	0
bin	-8	0
bin	-7	0
bin	-6	0
bin	-5	0
bin	-4	0
bin	-3	0
bin	-2	0
bin	-1	0
bin	0	1
bin	1	0
bin	2	0
bin	3	1
bin	4	3
bin	5	0
bin	6	0
bin	7	1
bin	8	2
bin	9	0
bin	10	1
bin	11	2
bin	12	1
bin	13	2
bin	14	0
bin	15	1
bin	16	2
bin	17	1
bin	18	1
bin	19	2
bin	20	0
bin	21	2
bin	22	1
bin	23	1
bin	24	1
bin	25	1
bin	26	1
bin	27	2
bin	28	0
bin	29	2
bin	30	1
bin	31	1
bin	32	1
bin	33	1
bin	34	1
bin	35	2
bin	36	0
bin	37	0
bin	38	3
bin	39	1
bin	40	2
bin	41	1
bin	42	1
bin	43	1
bin	44	1
bin	45	2
bin	46	0
bin	47	0
bin	48	0
bin	49	4
bin	50	1
bin	51	1
bin	52	1
bin	53	0
bin	54	0
bin	55	0
bin	56	0
bin	57	0
bin	58	0
bin	59	0
bin	60	0
bin	61	0
bin	62	0
bin	63	0
bin	64	0
bin	65	0
bin	66	0
bin	67	0
bin	68	0
bin	69	0
bin	70	0
bin	71	0
bin	72	0
bin	73	0
bin	74	0
bin	75	0
bin	76	0
bin	77	0
bin	78	0
scalar SimphonyDHTNetwork.members[2032] 	#packetsInTheNetwork 	137
statistic SimphonyDHTNetwork.members[2032] 	"packets statistics"
field count 151
field mean 69.139072847682
field stddev 39.667793777001
field sum 10440
field sqrsum 957842
field min 0
field max 136
attr type  int
bin	-INF	0
bin	-45	0
bin	-44	0
bin	-43	0
bin	-42	0
bin	-41	0
bin	-40	0
bin	-39	0
bin	-38	0
bin	-37	0
bin	-36	0
bin	-35	0
bin	-34	0
bin	-33	0
bin	-32	0
bin	-31	0
bin	-30	0
bin	-29	0
bin	-28	0
bin	-27	0
bin	-26	0
bin	-25	0
bin	-24	0
bin	-23	0
bin	-22	0
bin	-21	0
bin	-20	0
bin	-19	0
bin	-18	0
bin	-17	0
bin	-16	0
bin	-15	0
bin	-14	0
bin	-13	0
bin	-12	0
bin	-11	0
bin	-10	0
bin	-9	0
bin	-8	0
bin	-7	0
bin	-6	0
bin	-5	0
bin	-4	0
bin	-3	0
bin	-2	0
bin	-1	0
bin	0	1
bin	1	0
bin	2	0
bin	3	1
bin	4	3
bin	5	0
bin	6	0
bin	7	2
bin	8	0
bin	9	2
bin	10	1
bin	11	1
bin	12	2
bin	13	0
bin	14	0
bin	15	3
bin	16	1
bin	17	1
bin	18	2
bin	19	0
bin	20	0
bin	21	3
bin	22	1
bin	23	2
bin	24	1
bin	25	1
bin	26	1
bin	27	1
bin	28	1
bin	29	2
bin	30	1
bin	31	1
bin	32	1
bin	33	1
bin	34	2
bin	35	0
bin	36	0
bin	37	0
bin	38	0
bin	39	5
bin	40	1
bin	41	1
bin	42	1
bin	43	1
bin	44	1
bin	45	2
bin	46	0
bin	47	0
bin	48	0
bin	49	0
bin	50	5
bin	51	1
bin	52	1
bin	53	1
bin	54	1
bin	55	1
bin	56	2
bin	57	0
bin	58	0
bin	59	0
bin	60	0
bin	61	5
bin	62	1
bin	63	1
bin	64	1
bin	65	1
bin	66	2
bin	67	1
bin	68	1
bin	69	1
bin	70	1
bin	71	1
bin	72	2
bin	73	1
bin	74	1
bin	75	1
bin	76	1
bin	77	2
bin	78	0
bin	79	0
bin	80	0
bin	81	0
bin	82	0
bin	83	0
bin	84	7
bin	85	1
bin	86	1
bin	87	1
bin	88	1
bin	89	2
bin	90	0
bin	91	0
bin	92	0
bin	93	0
bin	94	0
bin	95	0
bin	96	7
bin	97	1
bin	98	1
bin	99	1
bin	100	1
bin	101	1
bin	102	2
bin	103	0
bin	104	0
bin	105	0
bin	106	0
bin	107	0
bin	108	0
bin	109	7
bin	110	1
bin	111	1
bin	112	1
bin	113	1
bin	114	2
bin	115	0
bin	116	0
bin	117	0
bin	118	0
bin	119	0
bin	120	0
bin	121	7
bin	122	1
bin	123	1
bin	124	1
bin	125	1
bin	126	1
bin	127	1
bin	128	1
bin	129	2
bin	130	1
bin	131	1
bin	132	1
bin	133	1
bin	134	4
scalar SimphonyDHTNetwork.members[2033] 	#packetsInTheNetwork 	32
statistic SimphonyDHTNetwork.members[2033] 	"packets statistics"
field count 34
field mean 16.441176470588
field stddev 8.7427586537091
field sum 559
field sqrsum 11713
field min 0
field max 31
attr type  int
bin	-INF	0
bin	-16	0
bin	-15	0
bin	-14	0
bin	-13	0
bin	-12	0
bin	-11	0
bin	-10	0
bin	-9	0
bin	-8	0
bin	-7	0
bin	-6	0
bin	-5	0
bin	-4	0
bin	-3	0
bin	-2	0
bin	-1	0
bin	0	1
bin	1	0
bin	2	0
bin	3	1
bin	4	3
bin	5	0
bin	6	0
bin	7	2
bin	8	0
bin	9	1
bin	10	2
bin	11	1
bin	12	1
bin	13	1
bin	14	2
bin	15	0
bin	16	2
bin	17	1
bin	18	1
bin	19	1
bin	20	2
bin	21	0
bin	22	2
bin	23	1
bin	24	2
bin	25	1
bin	26	1
bin	27	1
bin	28	1
bin	29	1
bin	30	1
bin	31	1
bin	32	0
bin	33	0
bin	34	0
bin	35	0
bin	36	0
bin	37	0
bin	38	0
bin	39	0
bin	40	0
bin	41	0
bin	42	0
bin	43	0
bin	44	0
bin	45	0
bin	46	0
bin	47	0
scalar SimphonyDHTNetwork.members[2034] 	#packetsInTheNetwork 	24
statistic SimphonyDHTNetwork.members[2034] 	"packets statistics"
field count 26
field mean 13
field stddev 6.887670143089
field sum 338
field sqrsum 5580
field min 0
field max 24
attr type  int
bin	-INF	0
bin	-12	0
bin	-11	0
bin	-10	0
bin	-9	0
bin	-8	0
bin	-7	0
bin	-6	0
bin	-5	0
bin	-4	0
bin	-3	0
bin	-2	0
bin	-1	0
bin	0	1
bin	1	0
bin	2	0
bin	3	1
bin	4	3
bin	5	0
bin	6	0
bin	7	2
bin	8	0
bin	9	1
bin	10	2
bin	11	1
bin	12	1
bin	13	1
bin	14	2
bin	15	0
bin	16	2
bin	17	1
bin	18	1
bin	19	2
bin	20	0
bin	21	2
bin	22	1
bin	23	1
bin	24	1
bin	25	0
bin	26	0
bin	27	0
bin	28	0
bin	29	0
bin	30	0
bin	31	0
bin	32	0
bin	33	0
bin	34	0
bin	35	0
bin	36	0
scalar SimphonyDHTNetwork.members[2035] 	#packetsInTheNetwork 	35
statistic SimphonyDHTNetwork.members[2035] 	"packets statistics"
field count 38
field mean 18.394736842105
field stddev 9.9009676668337
field sum 699
field sqrsum 16485
field min 0
field max 35
attr type  int
bin	-INF	0
bin	-18	0
bin	-17	0
bin	-16	0
bin	-15	0
bin	-14	0
bin	-13	0
bin	-12	0
bin	-11	0
bin	-10	0
bin	-9	0
bin	-8	0
bin	-7	0
bin	-6	0
bin	-5	0
bin	-4	0
bin	-3	0
bin	-2	0
bin	-1	0
bin	0	1
bin	1	0
bin	2	0
bin	3	1
bin	4	3
bin	5	0
bin	6	0
bin	7	1
bin	8	2
bin	9	0
bin	10	1
bin	11	2
bin	12	1
bin	13	2
bin	14	0
bin	15	1
bin	16	2
bin	17	1
bin	18	1
bin	19	2
bin	20	0
bin	21	0
bin	22	3
bin	23	1
bin	24	1
bin	25	2
bin	26	0
bin	27	0
bin	28	3
bin	29	1
bin	30	1
bin	31	1
bin	32	1
bin	33	1
bin	34	1
bin	35	1
bin	36	0
bin	37	0
bin	38	0
bin	39	0
bin	40	0
bin	41	0
bin	42	0
bin	43	0
bin	44	0
bin	45	0
bin	46	0
bin	47	0
bin	48	0
bin	49	0
bin	50	0
bin	51	0
bin	52	0
bin	53	0
scalar SimphonyDHTNetwork.members[2036] 	#packetsInTheNetwork 	27
statistic SimphonyDHTNetwork.members[2036] 	"packets statistics"
field count 29
field mean 14.551724137931
field stddev 7.7808657565326
field sum 422
field sqrsum 7836
field min 0
field max 26
attr type  int
bin	-INF	0
bin	-13	0
bin	-12	0
bin	-11	0
bin	-10	0
bin	-9	0
bin	-8	0
bin	-7	0
bin	-6	0
bin	-5	0
bin	-4	0
bin	-3	0
bin	-2	0
bin	-1	0
bin	0	1
bin	1	0
bin	2	0
bin	3	1
bin	4	3
bin	5	0
bin	6	0
bin	7	2
bin	8	0
bin	9	1
bin	10	2
bin	11	1
bin	12	1
bin	13	1
bin	14	1
bin	15	2
bin	16	0
bin	17	0
bin	18	3
bin	19	1
bin	20	1
bin	21	2
bin	22	0
bin	23	0
bin	24	3
bin	25	1
bin	26	2
bin	27	0
bin	28	0
bin	29	0
bin	30	0
bin	31	0
bin	32	0
bin	33	0
bin	34	0
bin	35	0
bin	36	0
bin	37	0
bin	38	0
bin	39	0
scalar SimphonyDHTNetwork.members[2037] 	#packetsInTheNetwork 	29
statistic SimphonyDHTNetwork.members[2037] 	"packets statistics"
field count 31
field mean 15.064516129032
field stddev 7.9872209763303
field sum 467
field sqrsum 8949
field min 0
field max 28
attr type  int
bin	-INF	0
bin	-14	0
bin	-13	0
bin	-12	0
bin	-11	0
bin	-10	0
bin	-9	0
bin	-8	0
bin	-7	0
bin	-6	0
bin	-5	0
bin	-4	0
bin	-3	0
bin	-2	0
bin	-1	0
bin	0	1
bin	1	0
bin	2	0
bin	3	1
bin	4	3
bin	5	0
bin	6	0
bin	7	2
bin	8	0
bin	9	2
bin	10	1
bin	11	1
bin	12	2
bin	13	0
bin	14	0
bin	15	3
bin	16	1
bin	17	1
bin	18	2
bin	19	0
bin	20	0
bin	21	3
bin	22	1
bin	23	2
bin	24	1
bin	25	1
bin	26	1
bin	27	1
bin	28	1
bin	29	0
bin	30	0
bin	31	0
bin	32	0
bin	33	0
bin	34	0
bin	35	0
bin	36	0
bin	37	0
bin	38	0
bin	39	0
bin	40	0
bin	41	0
bin	42	0
scalar SimphonyDHTNetwork.members[2038] 	#packetsInTheNetwork 	23
statistic SimphonyDHTNetwork.members[2038] 	"packets statistics"
field count 25
field mean 12.28
field stddev 6.4389440128021
field sum 307
field sqrsum 4765
field min 0
field max 22
attr type  int
bin	-INF	0
bin	-11	0
bin	-10	0
bin	-9	0
bin	-8	0
bin	-7	0
bin	-6	0
bin	-5	0
bin	-4	0
bin	-3	0
bin	-2	0
bin	-1	0
bin	0	1
bin	1	0
bin	2	0
bin	3	1
bin	4	3
bin	5	0
bin	6	0
bin	7	2
bin	8	0
bin	9	2
bin	10	1
bin	11	1
bin	12	2
bin	13	0
bin	14	2
bin	15	1
bin	16	1
bin	17	2
bin	18	0
bin	19	2
bin	20	1
bin	21	2
bin	22	1
bin	23	0
bin	24	0
bin	25	0
bin	26	0
bin	27	0
bin	28	0
bin	29	0
bin	30	0
bin	31	0
bin	32	0
bin	33	0
scalar SimphonyDHTNetwork.members[2039] 	#packetsInTheNetwork 	24
statistic SimphonyDHTNetwork.members[2039] 	"packets statistics"
field count 26
field mean 12.961538461538
field stddev 6.9020621221821
field sum 337
field sqrsum 5559
field min 0
field max 23
attr type  int
bin	-INF	0
bin	-12	0
bin	-11	0
bin	-10	0
bin	-9	0
bin	-8	0
bin	-7	0
bin	-6	0
bin	-5	0
bin	-4	0
bin	-3	0
bin	-2	0
bin	-1	0
bin	0	1
bin	1	0
bin	2	0
bin	3	1
bin	4	3
bin	5	0
bin	6	0
bin	7	2
bin	8	0
bin	9	2
bin	10	1
bin	11	1
bin	12	2
bin	13	0
bin	14	0
bin	15	3
bin	16	1
bin	17	1
bin	18	2
bin	19	0
bin	20	0
bin	21	3
bin	22	1
bin	23	2
bin	24	0
bin	25	0
bin	26	0
bin	27	0
bin	28	0
bin	29	0
bin	30	0
bin	31	0
bin	32	0
bin	33	0
bin	34	0
bin	35	0
scalar SimphonyDHTNetwork.members[2040] 	#packetsInTheNetwork 	22
statistic SimphonyDHTNetwork.members[2040] 	"packets statistics"
field count 24
field mean 12
field stddev 6.413301394961
field sum 288
field sqrsum 4402
field min 0
field max 22
attr type  int
bin	-INF	0
bin	-11	0
bin	-10	0
bin	-9	0
bin	-8	0
bin	-7	0
bin	-6	0
bin	-5	0
bin	-4	0
bin	-3	0
bin	-2	0
bin	-1	0
bin	0	1
bin	1	0
bin	2	0
bin	3	1
bin	4	3
bin	5	0
bin	6	0
bin	7	2
bin	8	0
bin	9	2
bin	10	1
bin	11	1
bin	12	2
bin	13	0
bin	14	2
bin	15	1
bin	16	1
bin	17	2
bin	18	0
bin	19	0
bin	20	3
bin	21	1
bin	22	1
bin	23	0
bin	24	0
bin	25	0
bin	26	0
bin	27	0
bin	28	0
bin	29	0
bin	30	0
bin	31	0
bin	32	0
bin	33	0
scalar SimphonyDHTNetwork.members[2041] 	#packetsInTheNetwork 	33
statistic SimphonyDHTNetwork.members[2041] 	"packets statistics"
field count 36
field mean 17.555555555556
field stddev 9.4670690726009
field sum 632
field sqrsum 14232
field min 0
field max 33
attr type  int
bin	-INF	0
bin	-17	0
bin	-16	0
bin	-15	0
bin	-14	0
bin	-13	0
bin	-12	0
bin	-11	0
bin	-10	0
bin	-9	0
bin	-8	0
bin	-7	0
bin	-6	0
bin	-5	0
bin	-4	0
bin	-3	0
bin	-2	0
bin	-1	0
bin	0	1
bin	1	0
bin	2	0
bin	3	1
bin	4	3
bin	5	0
bin	6	0
bin	7	1
bin	8	2
bin	9	0
bin	10	1
bin	11	2
bin	12	1
bin	13	2
bin	14	1
bin	15	0
bin	16	2
bin	17	1
bin	18	1
bin	19	1
bin	20	1
bin	21	1
bin	22	2
bin	23	0
bin	24	2
bin	25	1
bin	26	1
bin	27	1
bin	28	1
bin	29	2
bin	30	0
bin	31	2
bin	32	1
bin	33	1
bin	34	0
bin	35	0
bin	36	0
bin	37	0
bin	38	0
bin	39	0
bin	40	0
bin	41	0
bin	42	0
bin	43	0
bin	44	0
bin	45	0
bin	46	0
bin	47	0
bin	48	0
bin	49	0
bin	50	0
scalar SimphonyDHTNetwork.members[2042] 	#packetsInTheNetwork 	21
statistic SimphonyDHTNetwork.members[2042] 	"packets statistics"
field count 23
field mean 11.478260869565
field stddev 6.066821582235
field sum 264
field sqrsum 3840
field min 0
field max 21
attr type  int
bin	-INF	0
bin	-11	0
bin	-10	0
bin	-9	0
bin	-8	0
bin	-7	0
bin	-6	0
bin	-5	0
bin	-4	0
bin	-3	0
bin	-2	0
bin	-1	0
bin	0	1
bin	1	0
bin	2	0
bin	3	1
bin	4	3
bin	5	0
bin	6	0
bin	7	2
bin	8	0
bin	9	2
bin	10	1
bin	11	1
bin	12	2
bin	13	0
bin	14	2
bin	15	1
bin	16	1
bin	17	2
bin	18	0
bin	19	2
bin	20	1
bin	21	1
bin	22	0
bin	23	0
bin	24	0
bin	25	0
bin	26	0
bin	27	0
bin	28	0
bin	29	0
bin	30	0
bin	31	0
bin	32	0
scalar SimphonyDHTNetwork.members[2043] 	#packetsInTheNetwork 	52
statistic SimphonyDHTNetwork.members[2043] 	"packets statistics"
field count 57
field mean 27.210526315789
field stddev 14.993733026674
field sum 1551
field sqrsum 54793
field min 0
field max 52
attr type  int
bin	-INF	0
bin	-26	0
bin	-25	0
bin	-24	0
bin	-23	0
bin	-22	0
bin	-21	0
bin	-20	0
bin	-19	0
bin	-18	0
bin	-17	0
bin	-16	0
bin	-15	0
bin	-14	0
bin	-13	0
bin	-12	0
bin	-11	0
bin	-10	0
bin	-9	0
bin	-8	0
bin	-7	0
bin	-6	0
bin	-5	0
bin	-4	0
bin	-3	0
bin	-2	0
bin	-1	0
bin	0	1
bin	1	0
bin	2	0
bin	3	1
bin	4	3
bin	5	0
bin	6	0
bin	7	1
bin	8	2
bin	9	0
bin	10	1
bin	11	1
bin	12	2
bin	13	1
bin	14	2
bin	15	1
bin	16	0
bin	17	2
bin	18	1
bin	19	1
bin	20	1
bin	21	1
bin	22	1
bin	23	1
bin	24	1
bin	25	2
bin	26	0
bin	27	2
bin	28	1
bin	29	1
bin	30	2
bin	31	0
bin	32	0
bin	33	3
bin	34	1
bin	35	1
bin	36	1
bin	37	1
bin	38	1
bin	39	2
bin	40	0
bin	41	0
bin	42	3
bin	43	1
bin	44	1
bin	45	1
bin	46	2
bin	47	0
bin	48	0
bin	49	0
bin	50	4
bin	51	1
bin	52	1
bin	53	0
bin	54	0
bin	55	0
bin	56	0
bin	57	0
bin	58	0
bin	59	0
bin	60	0
bin	61	0
bin	62	0
bin	63	0
bin	64	0
bin	65	0
bin	66	0
bin	67	0
bin	68	0
bin	69	0
bin	70	0
bin	71	0
bin	72	0
bin	73	0
bin	74	0
bin	75	0
bin	76	0
bin	77	0
bin	78	0
scalar SimphonyDHTNetwork.members[2044] 	#packetsInTheNetwork 	36
statistic SimphonyDHTNetwork.members[2044] 	"packets statistics"
field count 38
field mean 18.421052631579
field stddev 9.8848275188916
field sum 700
field sqrsum 16510
field min 0
field max 35
attr type  int
bin	-INF	0
bin	-18	0
bin	-17	0
bin	-16	0
bin	-15	0
bin	-14	0
bin	-13	0
bin	-12	0
bin	-11	0
bin	-10	0
bin	-9	0
bin	-8	0
bin	-7	0
bin	-6	0
bin	-5	0
bin	-4	0
bin	-3	0
bin	-2	0
bin	-1	0
bin	0	1
bin	1	0
bin	2	0
bin	3	1
bin	4	3
bin	5	0
bin	6	0
bin	7	2
bin	8	0
bin	9	1
bin	10	2
bin	11	1
bin	12	1
bin	13	1
bin	14	2
bin	15	0
bin	16	0
bin	17	3
bin	18	1
bin	19	1
bin	20	1
bin	21	2
bin	22	0
bin	23	0
bin	24	3
bin	25	1
bin	26	2
bin	27	1
bin	28	1
bin	29	1
bin	30	1
bin	31	1
bin	32	1
bin	33	1
bin	34	1
bin	35	1
bin	36	0
bin	37	0
bin	38	0
bin	39	0
bin	40	0
bin	41	0
bin	42	0
bin	43	0
bin	44	0
bin	45	0
bin	46	0
bin	47	0
bin	48	0
bin	49	0
bin	50	0
bin	51	0
bin	52	0
bin	53	0
scalar SimphonyDHTNetwork.members[2045] 	#packetsInTheNetwork 	27
statistic SimphonyDHTNetwork.members[2045] 	"packets statistics"
field count 29
field mean 14.413793103448
field stddev 7.6649351939265
field sum 418
field sqrsum 7670
field min 0
field max 26
attr type  int
bin	-INF	0
bin	-13	0
bin	-12	0
bin	-11	0
bin	-10	0
bin	-9	0
bin	-8	0
bin	-7	0
bin	-6	0
bin	-5	0
bin	-4	0
bin	-3	0
bin	-2	0
bin	-1	0
bin	0	1
bin	1	0
bin	2	0
bin	3	1
bin	4	3
bin	5	0
bin	6	0
bin	7	2
bin	8	0
bin	9	1
bin	10	2
bin	11	1
bin	12	1
bin	13	2
bin	14	0
bin	15	0
bin	16	3
bin	17	1
bin	18	1
bin	19	1
bin	20	2
bin	21	0
bin	22	0
bin	23	3
bin	24	1
bin	25	2
bin	26	1
bin	27	0
bin	28	0
bin	29	0
bin	30	0
bin	31	0
bin	32	0
bin	33	0
bin	34	0
bin	35	0
bin	36	0
bin	37	0
bin	38	0
bin	39	0
scalar SimphonyDHTNetwork.members[2046] 	#packetsInTheNetwork 	23
statistic SimphonyDHTNetwork.members[2046] 	"packets statistics"
field count 25
field mean 12.56
field stddev 6.7273075347175
field sum 314
field sqrsum 5030
field min 0
field max 23
attr type  int
bin	-INF	0
bin	-12	0
bin	-11	0
bin	-10	0
bin	-9	0
bin	-8	0
bin	-7	0
bin	-6	0
bin	-5	0
bin	-4	0
bin	-3	0
bin	-2	0
bin	-1	0
bin	0	1
bin	1	0
bin	2	0
bin	3	1
bin	4	3
bin	5	0
bin	6	0
bin	7	2
bin	8	0
bin	9	2
bin	10	1
bin	11	1
bin	12	2
bin	13	0
bin	14	0
bin	15	3
bin	16	1
bin	17	1
bin	18	2
bin	19	0
bin	20	0
bin	21	3
bin	22	1
bin	23	1
bin	24	0
bin	25	0
bin	26	0
bin	27	0
bin	28	0
bin	29	0
bin	30	0
bin	31	0
bin	32	0
bin	33	0
bin	34	0
bin	35	0
scalar SimphonyDHTNetwork.members[2047] 	#packetsInTheNetwork 	42
statistic SimphonyDHTNetwork.members[2047] 	"packets statistics"
field count 46
field mean 22.086956521739
field stddev 12.121287219794
field sum 1016
field sqrsum 29052
field min 0
field max 42
attr type  int
bin	-INF	0
bin	-21	0
bin	-20	0
bin	-19	0
bin	-18	0
bin	-17	0
bin	-16	0
bin	-15	0
bin	-14	0
bin	-13	0
bin	-12	0
bin	-11	0
bin	-10	0
bin	-9	0
bin	-8	0
bin	-7	0
bin	-6	0
bin	-5	0
bin	-4	0
bin	-3	0
bin	-2	0
bin	-1	0
bin	0	1
bin	1	0
bin	2	0
bin	3	1
bin	4	3
bin	5	0
bin	6	0
bin	7	1
bin	8	2
bin	9	0
bin	10	1
bin	11	2
bin	12	1
bin	13	2
bin	14	1
bin	15	0
bin	16	2
bin	17	1
bin	18	1
bin	19	1
bin	20	1
bin	21	1
bin	22	2
bin	23	0
bin	24	2
bin	25	1
bin	26	1
bin	27	2
bin	28	0
bin	29	0
bin	30	3
bin	31	1
bin	32	1
bin	33	1
bin	34	1
bin	35	1
bin	36	2
bin	37	0
bin	38	0
bin	39	0
bin	40	4
bin	41	1
bin	42	1
bin	43	0
bin	44	0
bin	45	0
bin	46	0
bin	47	0
bin	48	0
bin	49	0
bin	50	0
bin	51	0
bin	52	0
bin	53	0
bin	54	0
bin	55	0
bin	56	0
bin	57	0
bin	58	0
bin	59	0
bin	60	0
bin	61	0
bin	62	0
bin	63	0
